ligandXIAP.pdb
 OpenBabel12182411583D

 41 43  0  0  1  0  0  0  0  0999 V2000
  -15.3760  -21.4430   -0.3470 C   0  0  0  0  0  0  0  0  0  0  0  0
  -15.9110  -20.1020   -0.8360 C   0  0  2  0  0  0  0  0  0  0  0  0
  -15.8980  -19.9890   -2.3600 C   0  0  0  0  0  0  0  0  0  0  0  0
  -16.3330  -18.6640   -2.8210 N   0  0  0  0  0  0  0  0  0  0  0  0
  -16.4980  -18.5770   -4.2800 C   0  0  0  0  0  0  0  0  0  0  0  0
  -15.2600  -18.8670   -5.1130 C   0  0  0  0  0  0  0  0  0  0  0  0
  -14.1680  -19.0160   -4.5810 O   0  0  0  0  0  0  0  0  0  0  0  0
  -15.4170  -18.9540   -6.4770 N   0  0  0  0  0  0  0  0  0  0  0  0
  -16.7170  -18.7000   -7.1540 C   0  0  0  0  0  0  0  0  0  0  0  0
  -16.4790  -19.0630   -8.6090 C   0  0  0  0  0  0  0  0  0  0  0  0
  -15.0020  -19.3330   -8.6890 C   0  0  0  0  0  0  0  0  0  0  0  0
  -14.2140  -19.6230   -9.7910 C   0  0  0  0  0  0  0  0  0  0  0  0
  -12.8530  -19.8400   -9.6330 C   0  0  0  0  0  0  0  0  0  0  0  0
  -12.2790  -19.7670   -8.3790 C   0  0  0  0  0  0  0  0  0  0  0  0
  -13.0590  -19.4770   -7.2720 C   0  0  0  0  0  0  0  0  0  0  0  0
  -14.4170  -19.2610   -7.4320 C   0  0  0  0  0  0  0  0  0  0  0  0
  -15.4800  -17.6070   -2.2630 C   0  0  0  0  0  0  0  0  0  0  0  0
  -15.5050  -17.6500   -0.7450 C   0  0  0  0  0  0  0  0  0  0  0  0
  -15.0780  -18.9910   -0.2650 N   0  3  0  0  0  0  0  0  0  0  0  0
  -15.4930  -22.1150   -1.0470 H   0  0  0  0  0  0  0  0  0  0  0  0
  -15.8650  -21.7160    0.4520 H   0  0  0  0  0  0  0  0  0  0  0  0
  -14.4260  -21.3570   -0.1340 H   0  0  0  0  0  0  0  0  0  0  0  0
  -16.8290  -19.9790   -0.5080 H   0  0  0  0  0  0  0  0  0  0  0  0
  -16.4910  -20.6690   -2.7370 H   0  0  0  0  0  0  0  0  0  0  0  0
  -14.9990  -20.1640   -2.6830 H   0  0  0  0  0  0  0  0  0  0  0  0
  -16.8140  -17.6750   -4.5020 H   0  0  0  0  0  0  0  0  0  0  0  0
  -17.1970  -19.2050   -4.5450 H   0  0  0  0  0  0  0  0  0  0  0  0
  -16.9770  -17.7590   -7.0670 H   0  0  0  0  0  0  0  0  0  0  0  0
  -17.4160  -19.2550   -6.7730 H   0  0  0  0  0  0  0  0  0  0  0  0
  -16.7310  -18.3230   -9.2000 H   0  0  0  0  0  0  0  0  0  0  0  0
  -16.9930  -19.8580   -8.8610 H   0  0  0  0  0  0  0  0  0  0  0  0
  -14.6030  -19.6740  -10.6480 H   0  0  0  0  0  0  0  0  0  0  0  0
  -12.3190  -20.0380  -10.3840 H   0  0  0  0  0  0  0  0  0  0  0  0
  -11.3530  -19.9150   -8.2760 H   0  0  0  0  0  0  0  0  0  0  0  0
  -12.6690  -19.4280   -6.4190 H   0  0  0  0  0  0  0  0  0  0  0  0
  -15.7980  -16.7350   -2.5700 H   0  0  0  0  0  0  0  0  0  0  0  0
  -14.5650  -17.7260   -2.5760 H   0  0  0  0  0  0  0  0  0  0  0  0
  -16.4100  -17.4630   -0.4240 H   0  0  0  0  0  0  0  0  0  0  0  0
  -14.9050  -16.9700   -0.3850 H   0  0  0  0  0  0  0  0  0  0  0  0
  -15.1260  -19.0130    0.6440 H   0  0  0  0  0  0  0  0  0  0  0  0
  -14.2030  -19.1210   -0.5100 H   0  0  0  0  0  0  0  0  0  0  0  0
  1  2  1  0  0  0  0
  1 20  1  0  0  0  0
  1 21  1  0  0  0  0
  1 22  1  0  0  0  0
  2  3  1  0  0  0  0
  2 19  1  0  0  0  0
  2 23  1  1  0  0  0
  3  4  1  0  0  0  0
  3 24  1  0  0  0  0
  3 25  1  0  0  0  0
  4  5  1  0  0  0  0
  4 17  1  0  0  0  0
  5  6  1  0  0  0  0
  5 26  1  0  0  0  0
  5 27  1  0  0  0  0
  6  7  2  0  0  0  0
  6  8  1  0  0  0  0
  8  9  1  0  0  0  0
  8 16  1  0  0  0  0
  9 28  1  0  0  0  0
  9 29  1  0  0  0  0
  9 10  1  0  0  0  0
 10 11  1  0  0  0  0
 10 30  1  0  0  0  0
 10 31  1  0  0  0  0
 11 12  2  0  0  0  0
 11 16  1  0  0  0  0
 12 13  1  0  0  0  0
 12 32  1  0  0  0  0
 13 14  2  0  0  0  0
 13 33  1  0  0  0  0
 14 15  1  0  0  0  0
 14 34  1  0  0  0  0
 15 16  2  0  0  0  0
 15 35  1  0  0  0  0
 17 18  1  0  0  0  0
 17 36  1  0  0  0  0
 17 37  1  0  0  0  0
 18 19  1  0  0  0  0
 18 38  1  0  0  0  0
 18 39  1  0  0  0  0
 19 40  1  0  0  0  0
 19 41  1  0  0  0  0
M  CHG  1  19   1
M  END
$$$$
