in.pdb
     RDKit          3D

 58 61  0  0  1  0  0  0  0  0999 V2000
    7.9503    1.0085   16.2526 C   0  0  0  0  0  0  0  0  0  0  0  0
    8.5167    0.0464   15.4229 C   0  0  0  0  0  0  0  0  0  0  0  0
    9.8784   -0.2149   15.4794 C   0  0  0  0  0  0  0  0  0  0  0  0
   10.6719    0.4668   16.3971 C   0  0  0  0  0  0  0  0  0  0  0  0
   10.1088    1.4119   17.2437 C   0  0  0  0  0  0  0  0  0  0  0  0
    8.7343    1.6863   17.2005 C   0  0  0  0  0  0  0  0  0  0  0  0
    8.1348    2.6842   18.1227 C   0  0  0  0  0  0  0  0  0  0  0  0
    8.6785    3.9693   18.2248 C   0  0  0  0  0  0  0  0  0  0  0  0
    8.1038    4.9124   19.0520 C   0  0  0  0  0  0  0  0  0  0  0  0
    7.0004    2.4219   18.8832 C   0  0  0  0  0  0  0  0  0  0  0  0
    6.4251    3.3111   19.6912 N   0  0  0  0  0  0  0  0  0  0  0  0
    6.9780    4.5223   19.7946 C   0  0  0  0  0  0  0  0  0  0  0  0
    6.3354    5.3969   20.6780 N   0  0  0  0  0  0  0  0  0  0  0  0
    6.8688    6.5482   21.2277 C   0  0  0  0  0  0  0  0  0  0  0  0
    7.9874    6.9890   21.0545 O   0  0  0  0  0  0  0  0  0  0  0  0
    5.0226    5.0772   21.2381 C   0  0  0  0  0  0  0  0  0  0  0  0
    4.5164    6.4394   21.6996 C   0  0  0  0  0  0  0  0  0  0  0  0
    5.7910    7.1768   22.1125 C   0  0  2  0  0  0  0  0  0  0  0  0
    5.7047    8.6174   21.9275 N   0  0  0  0  0  0  0  0  0  0  0  0
    6.2247    9.6846   23.0973 S   0  0  0  0  0  0  0  0  0  0  0  0
    5.3315    9.5999   24.2375 O   0  0  0  0  0  0  0  0  0  0  0  0
    6.3980   10.9401   22.3896 O   0  0  0  0  0  0  0  0  0  0  0  0
    7.8124    9.0538   23.5731 C   0  0  0  0  0  0  0  0  0  0  0  0
    8.0242    8.5266   24.7889 C   0  0  0  0  0  0  0  0  0  0  0  0
    9.2985    8.0636   25.3204 C   0  0  0  0  0  0  0  0  0  0  0  0
   10.7753    7.9977   24.4117 S   0  0  0  0  0  0  0  0  0  0  0  0
    9.5000    7.6326   26.6069 C   0  0  0  0  0  0  0  0  0  0  0  0
   10.8421    7.2551   26.8854 C   0  0  0  0  0  0  0  0  0  0  0  0
   11.6348    7.3983   25.7859 C   0  0  0  0  0  0  0  0  0  0  0  0
   13.3127    7.0354   25.6844 Cl  0  0  0  0  0  0  0  0  0  0  0  0
    7.8749   -0.4677   14.7118 H   0  0  0  0  0  0  0  0  0  0  0  0
   10.3146   -0.9498   14.8109 H   0  0  0  0  0  0  0  0  0  0  0  0
   11.7391    0.2676   16.4481 H   0  0  0  0  0  0  0  0  0  0  0  0
   10.7322    1.9474   17.9553 H   0  0  0  0  0  0  0  0  0  0  0  0
    9.5521    4.2400   17.6296 H   0  0  0  0  0  0  0  0  0  0  0  0
    8.5157    5.9086   19.1454 H   0  0  0  0  0  0  0  0  0  0  0  0
    6.5211    1.4430   18.8345 H   0  0  0  0  0  0  0  0  0  0  0  0
    4.4051    4.6046   20.4747 H   0  0  0  0  0  0  0  0  0  0  0  0
    5.1271    4.3593   22.0621 H   0  0  0  0  0  0  0  0  0  0  0  0
    4.0476    6.9742   20.8687 H   0  0  0  0  0  0  0  0  0  0  0  0
    3.7995    6.3783   22.5192 H   0  0  0  0  0  0  0  0  0  0  0  0
    6.0253    6.9558   23.1587 H   0  0  0  0  0  0  0  0  0  0  0  0
    6.0597    8.9490   21.0344 H   0  0  0  0  0  0  0  0  0  0  0  0
    8.5583    9.1249   22.7867 H   0  0  0  0  0  0  0  0  0  0  0  0
    7.1986    8.4273   25.4888 H   0  0  0  0  0  0  0  0  0  0  0  0
    8.6945    7.5930   27.3328 H   0  0  0  0  0  0  0  0  0  0  0  0
   11.1905    6.9007   27.8507 H   0  0  0  0  0  0  0  0  0  0  0  0
    6.4887    1.3137   16.0340 C   0  0  0  0  0  0  0  0  0  0  0  0
    5.6393    0.4371   16.1117 O   0  0  0  0  0  0  0  0  0  0  0  0
    6.1443    2.5955   15.6972 N   0  0  0  0  0  0  0  0  0  0  0  0
    4.7319    2.8607   15.5232 C   0  0  0  0  0  0  0  0  0  0  0  0
    7.0488    3.6196   15.2150 C   0  0  0  0  0  0  0  0  0  0  0  0
    4.1691    2.1232   16.0938 H   0  0  0  0  0  0  0  0  0  0  0  0
    4.4313    2.7828   14.4705 H   0  0  0  0  0  0  0  0  0  0  0  0
    4.5053    3.8670   15.8861 H   0  0  0  0  0  0  0  0  0  0  0  0
    6.9125    3.7868   14.1397 H   0  0  0  0  0  0  0  0  0  0  0  0
    8.0915    3.3620   15.3811 H   0  0  0  0  0  0  0  0  0  0  0  0
    6.8447    4.5609   15.7370 H   0  0  0  0  0  0  0  0  0  0  0  0
  1  6  2  0
  2  3  2  0
  2  1  1  0
  2 31  1  0
  3  4  1  0
  3 32  1  0
  4  5  2  0
  4 33  1  0
  5 34  1  0
  6  5  1  0
  6  7  1  0
  7 10  1  0
  8  7  2  0
  8  9  1  0
  8 35  1  0
  9 12  2  0
  9 36  1  0
 10 11  2  0
 10 37  1  0
 12 11  1  0
 12 13  1  0
 13 16  1  0
 13 14  1  0
 14 18  1  0
 15 14  2  0
 16 17  1  0
 16 38  1  0
 16 39  1  0
 17 18  1  0
 17 40  1  0
 17 41  1  0
 18 42  1  1
 19 18  1  0
 19 20  1  0
 19 43  1  0
 20 23  1  0
 20 22  2  0
 21 20  2  0
 23 24  2  0
 23 44  1  0
 24 25  1  0
 24 45  1  0
 25 27  2  0
 26 25  1  0
 26 29  1  0
 27 28  1  0
 27 46  1  0
 28 47  1  0
 29 28  2  0
 30 29  1  0
 48 49  2  0
 48 50  1  0
 50 51  1  0
 50 52  1  0
 51 53  1  0
 51 54  1  0
 51 55  1  0
 52 56  1  0
 52 57  1  0
 52 58  1  0
  1 48  1  0
M  END
>  <attachment_point>  (1) 
30

>  <energies>  (1) 
[-1652051.5914817888, -1652051.5922794337, -1652062.6542636089, -1652054.230122787, -1652063.2858483845, -1652055.7712405638]

>  <index>  (1) 
5

>  <Smiles>  (1) 
[H]/C(=C(/[H])S(=O)(=O)N([H])[C@]1([H])C(=O)N(c2nc([H])c(-c3c([H])c([H])c([H])c([H])c3C(=O)N(C([H])([H])[H])C([H])([H])[H])c([H])c2[H])C([H])([H])C1([H])[H])c1sc(Cl)c([H])c1[H]

>  <score>  (1) 
<NA>

>  <h>  (1) 
30

>  <Training>  (1) 
False

>  <Success>  (1) 
nan

>  <enamine_searched>  (1) 
False

>  <enamine_id>  (1) 
nan

$$$$
