ligandXIAP.pdb
     RDKit          3D

 45 47  0  0  1  0  0  0  0  0999 V2000
  -15.3449  -21.5849   -0.2160 C   0  0  2  0  0  0  0  0  0  0  0  0
  -15.7833  -20.2720   -0.8354 C   0  0  2  0  0  0  0  0  0  0  0  0
  -15.6506  -20.2255   -2.3623 C   0  0  2  0  0  0  0  0  0  0  0  0
  -16.0499  -18.9033   -2.8320 N   0  0  0  0  0  0  0  0  0  0  0  0
  -16.3698  -18.8143   -4.2321 C   0  0  2  0  0  0  0  0  0  0  0  0
  -15.2823  -19.2239   -5.2414 C   0  0  0  0  0  0  0  0  0  0  0  0
  -14.1776  -19.6166   -4.9039 O   0  0  0  0  0  0  0  0  0  0  0  0
  -15.6404  -19.1183   -6.5683 N   0  0  0  0  0  0  0  0  0  0  0  0
  -16.9743  -18.7505   -7.0869 C   0  0  2  0  0  0  0  0  0  0  0  0
  -16.9166  -19.0841   -8.5920 C   0  0  2  0  0  0  0  0  0  0  0  0
  -15.4548  -19.3452   -8.8417 C   0  0  0  0  0  0  0  0  0  0  0  0
  -14.7737  -19.5594  -10.0250 C   0  0  0  0  0  0  0  0  0  0  0  0
  -13.3991  -19.7507  -10.0062 C   0  0  0  0  0  0  0  0  0  0  0  0
  -12.6973  -19.7205   -8.7909 C   0  0  0  0  0  0  0  0  0  0  0  0
  -13.3658  -19.5322   -7.5814 C   0  0  0  0  0  0  0  0  0  0  0  0
  -14.7499  -19.3549   -7.6377 C   0  0  0  0  0  0  0  0  0  0  0  0
  -15.1375  -17.8860   -2.3244 C   0  0  2  0  0  0  0  0  0  0  0  0
  -15.2596  -17.8474   -0.7952 C   0  0  2  0  0  0  0  0  0  0  0  0
  -14.9622  -19.1659   -0.2138 N   0  0  1  0  0  0  0  0  0  0  0  0
  -14.2901  -21.7804   -0.4436 H   0  0  0  0  0  0  0  0  0  0  0  0
  -15.9376  -22.4268   -0.5813 H   0  0  0  0  0  0  0  0  0  0  0  0
  -15.4582  -21.5350    0.8734 H   0  0  0  0  0  0  0  0  0  0  0  0
  -16.8280  -20.0642   -0.5957 H   0  0  0  0  0  0  0  0  0  0  0  0
  -16.3101  -20.9754   -2.8120 H   0  0  0  0  0  0  0  0  0  0  0  0
  -14.6165  -20.4687   -2.6612 H   0  0  0  0  0  0  0  0  0  0  0  0
  -16.6648  -17.7785   -4.4542 H   0  0  0  0  0  0  0  0  0  0  0  0
  -17.2671  -19.4223   -4.4217 H   0  0  0  0  0  0  0  0  0  0  0  0
  -17.1578  -17.6802   -6.9336 H   0  0  0  0  0  0  0  0  0  0  0  0
  -17.7609  -19.3143   -6.5786 H   0  0  0  0  0  0  0  0  0  0  0  0
  -17.2979  -18.2544   -9.1942 H   0  0  0  0  0  0  0  0  0  0  0  0
  -17.5217  -19.9665   -8.8261 H   0  0  0  0  0  0  0  0  0  0  0  0
  -15.3088  -19.5726  -10.9711 H   0  0  0  0  0  0  0  0  0  0  0  0
  -12.8439  -19.9112  -10.9238 H   0  0  0  0  0  0  0  0  0  0  0  0
  -12.8578  -19.5158   -6.6249 H   0  0  0  0  0  0  0  0  0  0  0  0
  -15.4266  -16.9113   -2.7323 H   0  0  0  0  0  0  0  0  0  0  0  0
  -14.0917  -18.0771   -2.6305 H   0  0  0  0  0  0  0  0  0  0  0  0
  -16.2946  -17.5894   -0.5617 H   0  0  0  0  0  0  0  0  0  0  0  0
  -14.6040  -17.0907   -0.3673 H   0  0  0  0  0  0  0  0  0  0  0  0
  -15.1389  -19.1849    0.8108 H   0  0  0  0  0  0  0  0  0  0  0  0
  -13.9459  -19.3856   -0.3919 H   0  0  0  0  0  0  0  0  0  0  0  0
  -11.3463  -19.8894   -8.8876 O   0  0  0  0  0  0  0  0  0  0  0  0
  -10.5997  -19.7069   -7.7026 C   0  0  0  0  0  0  0  0  0  0  0  0
   -9.5489  -19.7782   -7.9840 H   0  0  0  0  0  0  0  0  0  0  0  0
  -10.7848  -18.7205   -7.2571 H   0  0  0  0  0  0  0  0  0  0  0  0
  -10.8264  -20.4884   -6.9648 H   0  0  0  0  0  0  0  0  0  0  0  0
  1  2  1  0
  1 20  1  1
  1 21  1  0
  1 22  1  0
  2  3  1  0
  2 19  1  0
  2 23  1  6
  3  4  1  0
  3 24  1  6
  3 25  1  0
  4  5  1  0
  4 17  1  0
  5  6  1  0
  5 26  1  6
  5 27  1  0
  6  7  2  0
  6  8  1  0
  8  9  1  0
  8 16  1  0
  9 28  1  6
  9 29  1  0
  9 10  1  0
 10 11  1  0
 10 30  1  6
 10 31  1  0
 11 12  1  0
 11 16  2  0
 12 13  2  0
 12 32  1  0
 13 14  1  0
 13 33  1  0
 14 15  2  0
 15 16  1  0
 15 34  1  0
 17 18  1  0
 17 35  1  6
 17 36  1  0
 18 19  1  0
 18 37  1  6
 18 38  1  0
 19 39  1  1
 19 40  1  0
 41 42  1  0
 42 43  1  0
 42 44  1  0
 42 45  1  0
 14 41  1  0
M  CHG  1  19   1
M  END
>  <attachment_point>  (1) 
33

>  <energies>  (1) 
[-575468.6932832274, -575589.6917254563, -575579.2959570037, -575589.6966200438, -575589.4923346823, -575589.6420287363, -575579.171280328, -575582.3082494248, -575589.5933774636, -575589.7664221362, -575579.0460874875, -575589.5914267653, -575584.9104862416, -575589.5584666631, -575589.6931263825, -575589.5799626852, -575582.3598653396, -575589.653857645, -575581.6232305719, -575589.757208323, -575589.6564226095, -575589.6907662683, -575579.0678360634, -575582.3066089317, -575579.0472924727, -575579.0432161922, -575575.8257448829, -575589.8383202219, -575579.0469196449, -575589.5540680335, -575589.692849773, -575579.0465639655, -575589.7557123386, -575589.6421205652, -575589.7846955067, -575589.8667224728, -575582.3232404819, -575589.5479851759, -575589.520180293, -575589.8002948683, -575579.0498236993, -575589.5501690224, -575579.048947978, -575582.0997873365, -575576.2161740562, -575589.5146274562, -575589.5773005518, -575589.6516879443, -575589.6061537988, -575575.4023992503, -575579.0784234381, -575589.5768899015, -575589.7829874043, -575579.061568786, -575589.6697728953, -575589.5242433506, -575582.4121856897, -575589.6524004511, -575579.151538358, -575579.0464297557, -575589.5093603334, -575589.4515743636, -575589.5883452637, -575589.6978748228, -575575.1317373315, -575589.5416455516, -575589.5574297475, -575589.5624095034, -575579.0195035599, -575589.4567437952, -575589.6046043395, -575581.952174941, -575589.5826818534, -575589.6258883395, -575589.7220904045, -575579.0457656841, -575589.5542356714, -575589.7674879265, -575589.6178028092, -575589.5330556951, -575589.6969060515, -575582.1590405292, -575579.0467715166, -575579.1433598322, -575589.6045574262, -575579.1425578953, -575589.7302941231, -575589.8165773553, -575589.6126935512, -575589.1611758902, -575579.0578134201, -575589.6567890163, -575582.3168948637, -575579.0489478336, -575589.5183201373, -575586.3990215531, -575589.8243479326, -575589.6160720515, -575581.8052222377, -575589.7224266779, -575582.3040021945, -575589.5287260574, -575575.1804393318, -575589.6239515368, -575589.6199717299, -575579.0091797337, -575589.5066029006, -575589.8110709493, -575589.5676437613, -575589.5259744494, -575589.5884759603, -575579.1433677288, -575579.0713788822, -575589.6074087265, -575589.8484224733, -575589.6391002099, -575589.5255142833, -575589.6639444979, -575589.6069024215, -575589.5981744182, -575582.3207263364, -575589.5175608372, -575589.6260735688, -575589.6975226154, -575589.6359511894, -575589.7002364551, -575589.6488964666, -575589.6782412155, -575589.5825753916, -575589.4648848687, -575586.03281849, -575589.6922211903, -575589.4431554811, -575589.9176921095, -575589.5599286623, -575589.820544203, -575579.1415623166, -575579.0475810332, -575589.6527143798, -575589.6968542315, -575579.0550041724, -575589.6935457529, -575589.5999765204, -575589.5602006582, -575589.7385051076, -575589.4563706099, -575589.4981810566, -575589.6338373388, -575589.6988334515, -575589.5902163475, -575582.3297830194, -575589.6833759416, -575589.7097448537, -575589.4570606463, -575589.595709999, -575589.576321247, -575589.5118400397, -575589.5826162626, -575589.5483124985, -575589.5082379415, -575589.6430948332, -575589.7993677307, -575579.0060440656, -575589.6792677391, -575589.6260719234, -575578.9888420762, -575585.9160246252, -575589.5961435144, -575579.0500711212, -575589.250066934, -575589.4849337818, -575589.4573782308, -575589.6017607014, -575589.5695679748, -575589.4053993901, -575589.6290386695, -575589.665662966, -575589.6167440369, -575589.797930984, -575579.1373013557, -575589.690419742, -575589.4490511083, -575589.2330191995, -575582.3118964887, -575589.6405042028, -575589.6937269497, -575579.0579529695, -575589.6609040906, -575589.548094336, -575579.3444614537, -575582.3227738333, -575589.6145570861, -575589.579931343, -575589.5868559803, -575589.5180361182, -575589.691406866, -575579.1382842984, -575589.5507086418, -575589.7905275392, -575589.3599186548, -575589.6916131567]

>  <index>  (1) 
0

>  <Smiles>  (1) 
[H]c1c([H])c2c(c([H])c1OC([H])([H])[H])N(C(=O)C([H])([H])N1C([H])([H])C([H])([H])[N+]([H])([H])[C@]([H])(C([H])([H])[H])C1([H])[H])C([H])([H])C2([H])[H]

>  <score>  (1) 
<NA>

>  <h>  (1) 
33

>  <Training>  (1) 
False

>  <Success>  (1) 
nan

>  <enamine_searched>  (1) 
False

>  <enamine_id>  (1) 
nan

$$$$
ligandXIAP.pdb
     RDKit          3D

 43 45  0  0  1  0  0  0  0  0999 V2000
  -15.3386  -21.8393    0.0254 C   0  0  2  0  0  0  0  0  0  0  0  0
  -15.8007  -20.5161   -0.5584 C   0  0  2  0  0  0  0  0  0  0  0  0
  -15.8046  -20.4950   -2.0903 C   0  0  2  0  0  0  0  0  0  0  0  0
  -16.1213  -19.1520   -2.5741 N   0  0  0  0  0  0  0  0  0  0  0  0
  -16.4097  -19.1036   -3.9896 C   0  0  2  0  0  0  0  0  0  0  0  0
  -15.2676  -19.4647   -4.9569 C   0  0  0  0  0  0  0  0  0  0  0  0
  -14.1800  -19.8533   -4.5688 O   0  0  0  0  0  0  0  0  0  0  0  0
  -15.5340  -19.3322   -6.2985 N   0  0  0  0  0  0  0  0  0  0  0  0
  -16.8333  -18.9823   -6.8973 C   0  0  2  0  0  0  0  0  0  0  0  0
  -16.6652  -19.3186   -8.3924 C   0  0  2  0  0  0  0  0  0  0  0  0
  -15.1665  -19.4083   -8.5638 C   0  0  0  0  0  0  0  0  0  0  0  0
  -14.3780  -19.4518   -9.6989 C   0  0  0  0  0  0  0  0  0  0  0  0
  -12.9919  -19.5100   -9.5772 C   0  0  0  0  0  0  0  0  0  0  0  0
  -12.3785  -19.5208   -8.3166 C   0  0  0  0  0  0  0  0  0  0  0  0
  -13.1670  -19.5194   -7.1637 C   0  0  0  0  0  0  0  0  0  0  0  0
  -14.5502  -19.4456   -7.3104 C   0  0  0  0  0  0  0  0  0  0  0  0
  -15.0992  -18.1959   -2.1474 C   0  0  2  0  0  0  0  0  0  0  0  0
  -15.0697  -18.1159   -0.6140 C   0  0  2  0  0  0  0  0  0  0  0  0
  -14.8874  -19.4434   -0.0048 N   0  0  1  0  0  0  0  0  0  0  0  0
  -15.4129  -21.8077    1.1181 H   0  0  0  0  0  0  0  0  0  0  0  0
  -14.2918  -22.0211   -0.2490 H   0  0  0  0  0  0  0  0  0  0  0  0
  -15.9347  -22.6840   -0.3289 H   0  0  0  0  0  0  0  0  0  0  0  0
  -16.8135  -20.2808   -0.2229 H   0  0  0  0  0  0  0  0  0  0  0  0
  -16.5806  -21.1848   -2.4436 H   0  0  0  0  0  0  0  0  0  0  0  0
  -14.8370  -20.8457   -2.4855 H   0  0  0  0  0  0  0  0  0  0  0  0
  -16.7586  -18.0937   -4.2428 H   0  0  0  0  0  0  0  0  0  0  0  0
  -17.2587  -19.7709   -4.1915 H   0  0  0  0  0  0  0  0  0  0  0  0
  -17.0415  -17.9127   -6.7629 H   0  0  0  0  0  0  0  0  0  0  0  0
  -17.6465  -19.5421   -6.4277 H   0  0  0  0  0  0  0  0  0  0  0  0
  -17.1259  -18.5472   -9.0139 H   0  0  0  0  0  0  0  0  0  0  0  0
  -17.1507  -20.2716   -8.6313 H   0  0  0  0  0  0  0  0  0  0  0  0
  -14.8360  -19.4178  -10.6869 H   0  0  0  0  0  0  0  0  0  0  0  0
  -12.3661  -19.5638  -10.4618 H   0  0  0  0  0  0  0  0  0  0  0  0
  -12.7037  -19.5616   -6.1832 H   0  0  0  0  0  0  0  0  0  0  0  0
  -15.3514  -17.2076   -2.5497 H   0  0  0  0  0  0  0  0  0  0  0  0
  -14.1088  -18.4677   -2.5454 H   0  0  0  0  0  0  0  0  0  0  0  0
  -16.0179  -17.6982   -0.2756 H   0  0  0  0  0  0  0  0  0  0  0  0
  -14.2626  -17.4588   -0.2896 H   0  0  0  0  0  0  0  0  0  0  0  0
  -15.0732  -19.4054    1.0208 H   0  0  0  0  0  0  0  0  0  0  0  0
  -13.8923  -19.7356   -0.1783 H   0  0  0  0  0  0  0  0  0  0  0  0
  -10.9688  -19.5871   -8.2173 N   0  0  0  0  0  0  0  0  0  0  0  0
  -10.6747  -19.5181   -7.2452 H   0  0  0  0  0  0  0  0  0  0  0  0
  -10.5120  -18.8488   -8.7414 H   0  0  0  0  0  0  0  0  0  0  0  0
  1  2  1  0
  1 20  1  1
  1 21  1  0
  1 22  1  0
  2  3  1  0
  2 19  1  0
  2 23  1  1
  3  4  1  0
  3 24  1  6
  3 25  1  0
  4  5  1  0
  4 17  1  0
  5  6  1  0
  5 26  1  6
  5 27  1  0
  6  7  2  0
  6  8  1  0
  8  9  1  0
  8 16  1  0
  9 28  1  6
  9 29  1  0
  9 10  1  0
 10 11  1  0
 10 30  1  6
 10 31  1  0
 11 12  1  0
 11 16  2  0
 12 13  2  0
 12 32  1  0
 13 14  1  0
 13 33  1  0
 14 15  2  0
 15 16  1  0
 15 34  1  0
 17 18  1  0
 17 35  1  6
 17 36  1  0
 18 19  1  0
 18 37  1  1
 18 38  1  0
 19 39  1  1
 19 40  1  0
 41 42  1  0
 41 43  1  0
 14 41  1  0
M  CHG  1  19   1
M  END
>  <attachment_point>  (2) 
33

>  <energies>  (2) 
[-538461.1657006198, -538460.036439484, -538460.0847578997, -538467.5830660356, -538465.0532066637, -538464.7997082965, -538466.4912589847, -538465.8767171926, -538465.7207910392, -538465.7367315909, -538465.4050246127, -538464.7972098185, -538467.6067266397, -538465.70083327, -538465.8585670674, -538464.7985094923, -538465.8008423185, -538468.2053629346, -538465.8093219037, -538466.3692608135, -538468.9911654177, -538465.6645679134, -538465.402584896, -538465.8644917774, -538465.716921478, -538466.6346532338, -538464.794646829, -538465.3019679852, -538466.5384525844, -538465.631093463, -538465.3090544901, -538465.7346155946, -538468.2017224419, -538465.9144541946, -538465.2597806472, -538465.9401116407, -538460.3116976621, -538465.2914732278, -538466.8089334015, -538465.6549016343, -538467.5641900104, -538465.885185362, -538465.646407479, -538465.652664151, -538464.790095468, -538465.2950206456, -538467.7459747375, -538466.4550665368, -538463.9466817031, -538465.7964850597, -538466.4047278601, -538465.2918903673, -538465.7273537316, -538465.8004338347, -538465.8439898855, -538459.9474006207, -538465.7459718316, -538465.6682990979, -538467.9846183, -538465.2950434455, -538465.9000319014, -538466.6862635342, -538467.7991811611, -538465.5090130515, -538465.724926746, -538468.3332414851, -538465.9440142483, -538465.650501638, -538465.7630696387, -538465.1569799302, -538467.4923452788, -538465.553425849, -538467.6086217492, -538466.3870137463, -538465.2275413937, -538460.5676848708, -538460.174695473, -538464.3607393261, -538465.3013891989, -538464.9369221999, -538465.7235193601, -538465.7415256699, -538468.8422067023, -538465.7459216268, -538459.9874905758, -538459.9578881174, -538467.619421571, -538460.3159175967, -538465.7221967225, -538466.5933947401, -538459.9791227304, -538466.3917003799, -538465.7567733862, -538465.7987661987, -538465.7817929876, -538465.2920054938, -538465.7955597156, -538465.8231095612, -538465.7676532503, -538465.1595816723, -538465.7209035709, -538465.3030207695, -538465.3190748781, -538465.8333681653, -538462.7388275247, -538466.3597033503, -538465.273162509, -538466.4668090071, -538465.2510414029, -538464.8284590646, -538465.6452363338, -538469.1072110542, -538467.9110527405, -538465.7157884525, -538464.8706927804, -538465.4653656079, -538467.6881461606, -538465.7794014231, -538468.9968688595, -538465.6215519748, -538465.8962760299, -538465.7058531137, -538465.6943163952, -538466.358854075, -538465.8062779001, -538466.3759619172, -538465.7599165677, -538460.1568804444, -538466.7674404482, -538465.3443202361, -538467.1173628992, -538465.7740189605, -538466.3998099768, -538465.6907597013, -538468.7862309065, -538465.6390446298, -538465.7367603629, -538467.705437453, -538464.6048981011, -538466.7620712136, -538465.7264543212, -538465.3017848773, -538465.5066866159, -538465.7291510495, -538467.5124523723, -538465.7070857462, -538467.9310903415, -538466.817819057, -538465.5983440479, -538460.3110486929, -538465.8649585171, -538464.8160340241, -538467.7271614072, -538467.6066428309, -538466.4347257622, -538465.667303911, -538465.5820304472, -538465.7284300299, -538464.8784056401, -538465.2805482945, -538460.3198626769, -538465.8166017637, -538459.6219514834, -538465.8303515586, -538467.6576664376, -538467.6005716232, -538468.010706797, -538464.9701254362, -538468.5225173286, -538465.7539604659, -538465.2505475332, -538465.8812284698, -538467.5637010335, -538465.7676319041, -538465.654486516, -538465.7373261497, -538467.669962176, -538465.2913300773, -538464.7985420933, -538465.3291021425, -538465.8470441473, -538461.8860780697, -538458.8939477323, -538465.6059086022, -538459.926466927, -538465.9788301602, -538465.7620086306, -538465.6292246924, -538465.7593423007, -538460.0539156146, -538465.7351478667, -538466.4557613495, -538466.2825878859, -538465.9126925458, -538465.5842122701, -538465.7440577684, -538467.5751856959, -538467.6685619147, -538466.3895501504]

>  <index>  (2) 
1

>  <Smiles>  (2) 
[H]c1c([H])c2c(c([H])c1N([H])[H])N(C(=O)C([H])([H])N1C([H])([H])C([H])([H])[N+]([H])([H])[C@]([H])(C([H])([H])[H])C1([H])[H])C([H])([H])C2([H])[H]

>  <score>  (2) 
<NA>

>  <h>  (2) 
33

>  <Training>  (2) 
False

>  <Success>  (2) 
nan

>  <enamine_searched>  (2) 
False

>  <enamine_id>  (2) 
nan

$$$$
ligandXIAP.pdb
     RDKit          3D

 41 43  0  0  1  0  0  0  0  0999 V2000
  -15.3556  -21.6008   -0.1829 C   0  0  2  0  0  0  0  0  0  0  0  0
  -15.8761  -20.2849   -0.7361 C   0  0  2  0  0  0  0  0  0  0  0  0
  -15.7731  -20.1884   -2.2625 C   0  0  2  0  0  0  0  0  0  0  0  0
  -16.2036  -18.8629   -2.7083 N   0  0  0  0  0  0  0  0  0  0  0  0
  -16.4368  -18.7745   -4.1336 C   0  0  2  0  0  0  0  0  0  0  0  0
  -15.2730  -19.1492   -5.0770 C   0  0  0  0  0  0  0  0  0  0  0  0
  -14.1930  -19.5573   -4.6773 O   0  0  0  0  0  0  0  0  0  0  0  0
  -15.5259  -19.0032   -6.4244 N   0  0  0  0  0  0  0  0  0  0  0  0
  -16.8466  -18.7970   -7.0564 C   0  0  2  0  0  0  0  0  0  0  0  0
  -16.6331  -19.1886   -8.5350 C   0  0  2  0  0  0  0  0  0  0  0  0
  -15.1367  -19.3208   -8.6654 C   0  0  0  0  0  0  0  0  0  0  0  0
  -14.3474  -19.5343   -9.7791 C   0  0  0  0  0  0  0  0  0  0  0  0
  -12.9621  -19.5767   -9.6483 C   0  0  0  0  0  0  0  0  0  0  0  0
  -12.3892  -19.3909   -8.3927 C   0  0  0  0  0  0  0  0  0  0  0  0
  -13.1538  -19.1899   -7.2519 C   0  0  0  0  0  0  0  0  0  0  0  0
  -14.5383  -19.1895   -7.4128 C   0  0  0  0  0  0  0  0  0  0  0  0
  -15.2778  -17.8598   -2.1845 C   0  0  2  0  0  0  0  0  0  0  0  0
  -15.3479  -17.8368   -0.6510 C   0  0  2  0  0  0  0  0  0  0  0  0
  -15.0713  -19.1722   -0.0946 N   0  0  1  0  0  0  0  0  0  0  0  0
  -15.9829  -22.4484   -0.4713 H   0  0  0  0  0  0  0  0  0  0  0  0
  -15.3231  -21.5550    0.9120 H   0  0  0  0  0  0  0  0  0  0  0  0
  -14.3370  -21.7894   -0.5464 H   0  0  0  0  0  0  0  0  0  0  0  0
  -16.9202  -20.1318   -0.4542 H   0  0  0  0  0  0  0  0  0  0  0  0
  -16.4100  -20.9480   -2.7286 H   0  0  0  0  0  0  0  0  0  0  0  0
  -14.7330  -20.3848   -2.5719 H   0  0  0  0  0  0  0  0  0  0  0  0
  -16.7506  -17.7483   -4.3747 H   0  0  0  0  0  0  0  0  0  0  0  0
  -17.2999  -19.4108   -4.3805 H   0  0  0  0  0  0  0  0  0  0  0  0
  -17.1508  -17.7463   -6.9659 H   0  0  0  0  0  0  0  0  0  0  0  0
  -17.6107  -19.4212   -6.5809 H   0  0  0  0  0  0  0  0  0  0  0  0
  -17.0393  -18.4306   -9.2088 H   0  0  0  0  0  0  0  0  0  0  0  0
  -17.1365  -20.1326   -8.7626 H   0  0  0  0  0  0  0  0  0  0  0  0
  -14.7976  -19.6574  -10.7600 H   0  0  0  0  0  0  0  0  0  0  0  0
  -12.3264  -19.7365  -10.5109 H   0  0  0  0  0  0  0  0  0  0  0  0
  -12.6886  -19.0357   -6.2873 H   0  0  0  0  0  0  0  0  0  0  0  0
  -15.5536  -16.8755   -2.5745 H   0  0  0  0  0  0  0  0  0  0  0  0
  -14.2428  -18.0653   -2.5119 H   0  0  0  0  0  0  0  0  0  0  0  0
  -16.3510  -17.5224   -0.3536 H   0  0  0  0  0  0  0  0  0  0  0  0
  -14.6254  -17.1216   -0.2571 H   0  0  0  0  0  0  0  0  0  0  0  0
  -15.2667  -19.2094    0.9263 H   0  0  0  0  0  0  0  0  0  0  0  0
  -14.0525  -19.3859   -0.2571 H   0  0  0  0  0  0  0  0  0  0  0  0
  -10.6524  -19.4109   -8.2475 Cl  0  0  0  0  0  0  0  0  0  0  0  0
  1  2  1  0
  1 20  1  1
  1 21  1  0
  1 22  1  0
  2  3  1  0
  2 19  1  0
  2 23  1  6
  3  4  1  0
  3 24  1  6
  3 25  1  0
  4  5  1  0
  4 17  1  0
  5  6  1  0
  5 26  1  1
  5 27  1  0
  6  7  2  0
  6  8  1  0
  8  9  1  0
  8 16  1  0
  9 28  1  6
  9 29  1  0
  9 10  1  0
 10 11  1  0
 10 30  1  6
 10 31  1  0
 11 12  1  0
 11 16  2  0
 12 13  2  0
 12 32  1  0
 13 14  1  0
 13 33  1  0
 14 15  2  0
 15 16  1  0
 15 34  1  0
 17 18  1  0
 17 35  1  6
 17 36  1  0
 18 19  1  0
 18 37  1  6
 18 38  1  0
 19 39  1  1
 19 40  1  0
 14 41  1  0
M  CHG  1  19   1
M  END
>  <attachment_point>  (3) 
33

>  <energies>  (3) 
[-792131.6800318512, -792128.2065767644, -792128.2069126137, -792128.2062191044, -792128.2064614228, -792128.2068341548, -792128.2062965235, -792128.2065663292, -792128.2067469702, -792128.2065352483, -792128.2066846055, -792128.2063765781, -792128.2066522174, -792128.2065634872, -792128.2070777481, -792128.2063862866, -792128.206844045, -792128.2065466628, -792128.206678786, -792128.2072832375, -792128.2071444471, -792128.2066577626, -792128.206722332, -792128.2059894792, -792128.2062324599, -792128.2069731017, -792128.2062896998, -792128.2070193652, -792128.2070988676, -792128.2066869845, -792128.2065452739, -792128.2069861972, -792128.2072418318, -792128.2068897528, -792128.206519642, -792128.2064956734, -792128.2071108591, -792128.2065809063, -792128.2066596609, -792128.2063765852, -792128.206638976, -792128.2066419213, -792128.2063805135, -792125.1869321752, -792128.206635208, -792128.2066130129, -792128.2067355522, -792128.2062198203, -792128.206808384, -792128.20630058, -792128.2065809526, -792128.2068541418, -792128.2069048107, -792128.2067634455, -792124.7617393911, -792124.7730654599, -792128.2067932549, -792128.2067903844, -792128.2069628696, -792128.2066690454, -792128.2069243061, -792124.7855526677, -792128.2065345681, -792124.7777295965, -792128.2073525328, -792128.2066319741, -792128.2062642531, -792128.2069610674, -792128.2064723494, -792128.2066266604, -792128.206827908, -792128.2065601714, -792128.206591174, -792128.2064426646, -792128.2063700642, -792128.206430114, -792128.2067881763, -792128.2066385486, -792128.2065910886, -792128.2066205988, -792128.2066877289, -792128.2066689812, -792128.2063868137, -792128.2064374079, -792128.2071312449, -792128.2068518696, -792128.2060267142, -792128.2065277693, -792128.2068955972, -792128.2064701057, -792128.2067780831, -792128.2067218904, -792128.2058418707, -792128.2070302347, -792128.206410476, -792128.2063812828, -792128.206601285, -792124.8313306991, -792128.2064548092, -792128.2067584381, -792128.2069528939, -792124.889001929, -792124.7683277245, -792128.2058829558, -792128.2069319597, -792128.2066871946, -792128.206825479, -792128.2069245127, -792128.2064864385, -792128.2064796325, -792128.2065395969, -792128.2069752528, -792128.2063837509, -792128.2066197263, -792128.2068245389, -792128.2064632855, -792128.2066041271, -792128.2067683283, -792128.2063857452, -792128.2068109697, -792128.2064826776, -792128.2064759607, -792128.2065976416, -792128.2065135733, -792128.20704697, -792128.207294862, -792128.2065750121, -792128.2067247966, -792128.2066185438, -792128.206806126, -792128.2066008149, -792128.2062191863, -792128.2067856762, -792128.2059564287, -792128.2066290039, -792128.206391173, -792128.2067003364, -792128.2062675902, -792128.2065440773, -792128.2068188548, -792128.2065185594, -792128.2063233021, -792128.2069424945, -792128.2066722721, -792128.2072225822, -792128.2065300664, -792128.2065269644, -792128.2061610526, -792128.2066784797, -792128.20662858, -792128.2062954942, -792128.2065966231, -792128.206568548, -792128.2071232992, -792128.2068044202, -792128.2069771404, -792125.0689791465, -792128.207153415, -792124.7873478339, -792128.2062060909, -792128.2067109246, -792128.2066731589, -792128.2063837936, -792128.2064108428, -792128.2067307015, -792128.205965247, -792128.2065400314, -792128.2066061713, -792128.206344329, -792128.2067239204, -792128.2065149373, -792128.2064791766, -792128.2064501507, -792128.2064779088, -792128.2063802712, -792128.2070380735, -792128.2068956542, -792124.8094743169, -792124.7161595105, -792128.2064413967, -792128.2069296341, -792128.2062044597, -792128.2065504487, -792128.206556756, -792128.2067355663, -792125.2924752468, -792128.2063903075, -792128.206527374, -792128.206716655, -792128.2067077977, -792128.2071239866, -792128.2067607212, -792128.2065274345, -792128.2066251112, -792128.2067682178, -792128.2063930569, -792128.2059621377, -792128.2067155937, -792128.2060420285, -792128.2069476087, -792128.20663602]

>  <index>  (3) 
2

>  <Smiles>  (3) 
[H]c1c([H])c2c(c([H])c1Cl)N(C(=O)C([H])([H])N1C([H])([H])C([H])([H])[N+]([H])([H])[C@]([H])(C([H])([H])[H])C1([H])[H])C([H])([H])C2([H])[H]

>  <score>  (3) 
<NA>

>  <h>  (3) 
33

>  <Training>  (3) 
False

>  <Success>  (3) 
nan

>  <enamine_searched>  (3) 
False

>  <enamine_id>  (3) 
nan

$$$$
ligandXIAP.pdb
     RDKit          3D

 41 43  0  0  1  0  0  0  0  0999 V2000
  -15.3820  -21.4355   -0.3387 C   0  0  2  0  0  0  0  0  0  0  0  0
  -15.9175  -20.1050   -0.8396 C   0  0  2  0  0  0  0  0  0  0  0  0
  -15.8932  -19.9981   -2.3676 C   0  0  2  0  0  0  0  0  0  0  0  0
  -16.3225  -18.6734   -2.8127 N   0  0  0  0  0  0  0  0  0  0  0  0
  -16.4626  -18.6029   -4.2507 C   0  0  2  0  0  0  0  0  0  0  0  0
  -15.2100  -18.9009   -5.1173 C   0  0  0  0  0  0  0  0  0  0  0  0
  -14.0955  -19.0798   -4.6477 O   0  0  0  0  0  0  0  0  0  0  0  0
  -15.4327  -18.9627   -6.4757 N   0  0  0  0  0  0  0  0  0  0  0  0
  -16.7260  -18.7047   -7.1420 C   0  0  2  0  0  0  0  0  0  0  0  0
  -16.4873  -19.0643   -8.6232 C   0  0  2  0  0  0  0  0  0  0  0  0
  -15.0082  -19.3328   -8.7014 C   0  0  0  0  0  0  0  0  0  0  0  0
  -14.2240  -19.6250   -9.8033 C   0  0  0  0  0  0  0  0  0  0  0  0
  -12.8593  -19.8420   -9.6332 C   0  0  0  0  0  0  0  0  0  0  0  0
  -12.3217  -19.7576   -8.3553 C   0  0  0  0  0  0  0  0  0  0  0  0
  -13.0705  -19.4738   -7.2247 C   0  0  0  0  0  0  0  0  0  0  0  0
  -14.4352  -19.2668   -7.4294 C   0  0  0  0  0  0  0  0  0  0  0  0
  -15.4643  -17.6222   -2.2658 C   0  0  2  0  0  0  0  0  0  0  0  0
  -15.4866  -17.6629   -0.7309 C   0  0  2  0  0  0  0  0  0  0  0  0
  -15.0810  -18.9923   -0.2345 N   0  0  1  0  0  0  0  0  0  0  0  0
  -14.3413  -21.5688   -0.6636 H   0  0  0  0  0  0  0  0  0  0  0  0
  -15.9697  -22.2714   -0.7269 H   0  0  0  0  0  0  0  0  0  0  0  0
  -15.4114  -21.4735    0.7566 H   0  0  0  0  0  0  0  0  0  0  0  0
  -16.9463  -19.9439   -0.5049 H   0  0  0  0  0  0  0  0  0  0  0  0
  -16.5855  -20.7376   -2.7868 H   0  0  0  0  0  0  0  0  0  0  0  0
  -14.8817  -20.2242   -2.7433 H   0  0  0  0  0  0  0  0  0  0  0  0
  -16.8375  -17.6015   -4.5107 H   0  0  0  0  0  0  0  0  0  0  0  0
  -17.2581  -19.3036   -4.5436 H   0  0  0  0  0  0  0  0  0  0  0  0
  -17.0078  -17.6505   -7.0262 H   0  0  0  0  0  0  0  0  0  0  0  0
  -17.5151  -19.3210   -6.6990 H   0  0  0  0  0  0  0  0  0  0  0  0
  -16.7847  -18.2490   -9.2877 H   0  0  0  0  0  0  0  0  0  0  0  0
  -17.0588  -19.9510   -8.9140 H   0  0  0  0  0  0  0  0  0  0  0  0
  -14.6687  -19.6822  -10.7943 H   0  0  0  0  0  0  0  0  0  0  0  0
  -12.2034  -20.0666  -10.4649 H   0  0  0  0  0  0  0  0  0  0  0  0
  -12.5953  -19.4124   -6.2527 H   0  0  0  0  0  0  0  0  0  0  0  0
  -15.8555  -16.6564   -2.6067 H   0  0  0  0  0  0  0  0  0  0  0  0
  -14.4326  -17.7202   -2.6434 H   0  0  0  0  0  0  0  0  0  0  0  0
  -16.5095  -17.4606   -0.4027 H   0  0  0  0  0  0  0  0  0  0  0  0
  -14.8289  -16.8963   -0.3221 H   0  0  0  0  0  0  0  0  0  0  0  0
  -15.1645  -19.0745    0.8001 H   0  0  0  0  0  0  0  0  0  0  0  0
  -14.0769  -19.1693   -0.5115 H   0  0  0  0  0  0  0  0  0  0  0  0
  -10.9992  -19.9586   -8.2101 F   0  0  0  0  0  0  0  0  0  0  0  0
  1  2  1  0
  1 20  1  1
  1 21  1  0
  1 22  1  0
  2  3  1  0
  2 19  1  0
  2 23  1  1
  3  4  1  0
  3 24  1  6
  3 25  1  0
  4  5  1  0
  4 17  1  0
  5  6  1  0
  5 26  1  1
  5 27  1  0
  6  7  2  0
  6  8  1  0
  8  9  1  0
  8 16  1  0
  9 28  1  6
  9 29  1  0
  9 10  1  0
 10 11  1  0
 10 30  1  6
 10 31  1  0
 11 12  1  0
 11 16  2  0
 12 13  2  0
 12 32  1  0
 13 14  1  0
 13 33  1  0
 14 15  2  0
 15 16  1  0
 15 34  1  0
 17 18  1  0
 17 35  1  1
 17 36  1  0
 18 19  1  0
 18 37  1  1
 18 38  1  0
 19 39  1  1
 19 40  1  0
 14 41  1  0
M  CHG  1  19   1
M  END
>  <attachment_point>  (4) 
33

>  <energies>  (4) 
[-565992.2816715902, -565994.4299681954, -565994.4299659054, -565994.4290998752, -565994.4305972352, -565994.4296604992, -565990.5355821889, -565994.4278855872, -565994.4303067409, -565994.4301746249, -565994.4298281978, -565994.4294474667, -565994.4310363635, -565994.4302213121, -565994.429379425, -565990.6262025024, -565994.4286352217, -565994.4299671625, -565994.4305144063, -565994.4314748865, -565994.4301952173, -565994.42994943, -565994.4300810902, -565994.4295458201, -565994.430179586, -565994.4295902993, -565994.4279963807, -565994.4295311932, -565994.4285691673, -565994.4312389325, -565994.4292192446, -565994.4286518858, -565994.4307248745, -565994.4284592036, -565994.4310500895, -565994.4300107192, -565990.5230019209, -565994.4307112411, -565994.4304478212, -565994.4314628772, -565994.4283834192, -565994.4304818794, -565994.4293197028, -565994.4302447145, -565990.6034600169, -565994.4303860263, -565994.4305568198, -565994.4288802112, -565994.4286848151, -565994.4279841364, -565994.4303768127, -565994.4299707526, -565994.4306344703, -565994.4296770351, -565994.4302577281, -565994.4295416069, -565994.4298161992, -565994.4284106358, -565994.4274070655, -565994.4306858943, -565994.4292628547, -565990.6595549692, -565994.4286789458, -565994.4303663314, -565994.4292685175, -565994.4290327629, -565994.430059034, -565994.4299450458, -565994.429695715, -565994.4310314951, -565994.4287175521, -565994.429904, -565994.4294652883, -565994.4288516946, -565994.4294136257, -565994.4295379778, -565994.429548021, -565994.4303196335, -565994.4297182199, -565994.4291067879, -565994.4299621267, -565994.4295626373, -565990.6465184215, -565994.4283848045, -565994.4297308382, -565994.4291209732, -565994.4301857722, -565994.4282459039, -565994.4309855807, -565994.4303246551, -565994.428549889, -565994.4301957088, -565994.4297961126, -565994.4287528106, -565994.4292053407, -565994.4295224533, -565994.4318095963, -565994.43065247, -565994.430675071, -565994.4302334639, -565994.4303439618, -565994.4292494565, -565994.4297258094, -565994.4300437875, -565994.4307688514, -565994.4287474114, -565994.4305292291, -565994.4304487329, -565994.4298448049, -565990.6245508745, -565994.4308416976, -565994.4285421749, -565994.4322157527, -565994.4288911306, -565994.428489216, -565994.4291856352, -565994.431046236, -565990.6623983282, -565994.4304854587, -565994.4307446763, -565994.4292529325, -565994.4294417684, -565994.4296365093, -565994.429576844, -565994.429598601, -565994.4306279635, -565994.4300503405, -565994.4305437598, -565994.4308028776, -565994.4293613969, -565994.4313342727, -565994.4308925411, -565994.4291358102, -565994.4281920937, -565994.430226779, -565990.6027367441, -565994.4307408333, -565994.4284466315, -565994.4282491769, -565994.430977895, -565994.4293872495, -565994.4285599431, -565994.4290838485, -565990.6328209748, -565994.4279989557, -565994.4292715163, -565994.4291109833, -565994.4298686668, -565994.4297089316, -565994.430531455, -565990.6363665254, -565994.4284400642, -565994.4307521447, -565994.4279789331, -565994.4313969617, -565994.4300159332, -565994.4302379834, -565994.4307444198, -565994.428113243, -565994.4306049636, -565994.4296838375, -565994.429743371, -565994.4276962135, -565994.4298237282, -565994.4282553453, -565994.4300987729, -565990.6087672951, -565994.4283202316, -565994.4299780892, -565994.4299049367, -565994.4316335781, -565994.4304777482, -565994.428583634, -565994.429953312, -565994.429134115, -565994.4312177915, -565994.4304614651, -565994.4288068593, -565994.4295298007, -565994.4305127929, -565994.4305394007, -565994.4300247193, -565994.4283488658, -565994.429031114, -565994.4284763484, -565994.4301656714, -565994.4298641188, -565994.4298059315, -565994.4295840773, -565994.4293308288, -565994.4284809071, -565994.430230864, -565994.4276379338, -565994.4288778036, -565994.429027695, -565994.429839648, -565994.4300394816, -565994.4276420864, -565994.428938174, -565990.5995520131, -565994.4295898041]

>  <index>  (4) 
3

>  <Smiles>  (4) 
[H]c1c([H])c2c(c([H])c1F)N(C(=O)C([H])([H])N1C([H])([H])C([H])([H])[N+]([H])([H])[C@]([H])(C([H])([H])[H])C1([H])[H])C([H])([H])C2([H])[H]

>  <score>  (4) 
<NA>

>  <h>  (4) 
33

>  <Training>  (4) 
False

>  <Success>  (4) 
nan

>  <enamine_searched>  (4) 
False

>  <enamine_id>  (4) 
nan

$$$$
ligandXIAP.pdb
     RDKit          3D

 41 43  0  0  1  0  0  0  0  0999 V2000
  -15.3375  -21.4936   -0.1964 C   0  0  2  0  0  0  0  0  0  0  0  0
  -15.8769  -20.1589   -0.6894 C   0  0  2  0  0  0  0  0  0  0  0  0
  -15.8792  -20.0784   -2.2350 C   0  0  2  0  0  0  0  0  0  0  0  0
  -16.2665  -18.7259   -2.7242 N   0  0  0  0  0  0  0  0  0  0  0  0
  -16.4948  -18.6185   -4.2059 C   0  0  2  0  0  0  0  0  0  0  0  0
  -15.3464  -19.0096   -5.1878 C   0  0  0  0  0  0  0  0  0  0  0  0
  -14.2383  -19.3664   -4.7823 O   0  0  0  0  0  0  0  0  0  0  0  0
  -15.5516  -18.9674   -6.5714 N   0  0  0  0  0  0  0  0  0  0  0  0
  -16.8477  -18.8049   -7.2345 C   0  0  2  0  0  0  0  0  0  0  0  0
  -16.5890  -19.1675   -8.7094 C   0  0  2  0  0  0  0  0  0  0  0  0
  -15.1024  -19.3250   -8.7655 C   0  0  0  0  0  0  0  0  0  0  0  0
  -14.2910  -19.5666   -9.8764 C   0  0  0  0  0  0  0  0  0  0  0  0
  -12.8998  -19.6301   -9.7026 C   0  0  0  0  0  0  0  0  0  0  0  0
  -12.3329  -19.4464   -8.4305 C   0  0  0  0  0  0  0  0  0  0  0  0
  -13.1671  -19.2298   -7.3295 C   0  0  0  0  0  0  0  0  0  0  0  0
  -14.5489  -19.1797   -7.5083 C   0  0  0  0  0  0  0  0  0  0  0  0
  -15.4382  -17.6658   -2.0877 C   0  0  2  0  0  0  0  0  0  0  0  0
  -15.4333  -17.7934   -0.5444 C   0  0  2  0  0  0  0  0  0  0  0  0
  -15.0000  -19.1395   -0.0875 N   0  0  1  0  0  0  0  0  0  0  0  0
  -15.8238  -22.3222   -0.7148 H   0  0  0  0  0  0  0  0  0  0  0  0
  -15.5219  -21.5948    0.8762 H   0  0  0  0  0  0  0  0  0  0  0  0
  -14.2591  -21.5547   -0.3697 H   0  0  0  0  0  0  0  0  0  0  0  0
  -16.9140  -20.0205   -0.3537 H   0  0  0  0  0  0  0  0  0  0  0  0
  -16.5774  -20.8255   -2.6261 H   0  0  0  0  0  0  0  0  0  0  0  0
  -14.8728  -20.3203   -2.5958 H   0  0  0  0  0  0  0  0  0  0  0  0
  -16.7776  -17.5840   -4.4349 H   0  0  0  0  0  0  0  0  0  0  0  0
  -17.3527  -19.2516   -4.4597 H   0  0  0  0  0  0  0  0  0  0  0  0
  -17.1982  -17.7703   -7.1571 H   0  0  0  0  0  0  0  0  0  0  0  0
  -17.6106  -19.4659   -6.8121 H   0  0  0  0  0  0  0  0  0  0  0  0
  -16.9208  -18.3653   -9.3788 H   0  0  0  0  0  0  0  0  0  0  0  0
  -17.0940  -20.1035   -8.9735 H   0  0  0  0  0  0  0  0  0  0  0  0
  -14.7478  -19.6930  -10.8532 H   0  0  0  0  0  0  0  0  0  0  0  0
  -12.2594  -19.8120  -10.5572 H   0  0  0  0  0  0  0  0  0  0  0  0
  -12.7519  -19.0780   -6.3394 H   0  0  0  0  0  0  0  0  0  0  0  0
  -15.8239  -16.6783   -2.3631 H   0  0  0  0  0  0  0  0  0  0  0  0
  -14.4062  -17.7438   -2.4468 H   0  0  0  0  0  0  0  0  0  0  0  0
  -16.4511  -17.5939   -0.1849 H   0  0  0  0  0  0  0  0  0  0  0  0
  -14.7688  -17.0259   -0.1314 H   0  0  0  0  0  0  0  0  0  0  0  0
  -15.0569  -19.2125    0.9385 H   0  0  0  0  0  0  0  0  0  0  0  0
  -14.0282  -19.3149   -0.3713 H   0  0  0  0  0  0  0  0  0  0  0  0
  -10.4410  -19.4643   -8.1762 Br  0  0  0  0  0  0  0  0  0  0  0  0
  1  2  1  0
  1 20  1  6
  1 21  1  0
  1 22  1  0
  2  3  1  0
  2 19  1  0
  2 23  1  1
  3  4  1  0
  3 24  1  6
  3 25  1  0
  4  5  1  0
  4 17  1  0
  5  6  1  0
  5 26  1  1
  5 27  1  0
  6  7  2  0
  6  8  1  0
  8  9  1  0
  8 16  1  0
  9 28  1  6
  9 29  1  0
  9 10  1  0
 10 11  1  0
 10 30  1  6
 10 31  1  0
 11 12  1  0
 11 16  2  0
 12 13  2  0
 12 32  1  0
 13 14  1  0
 13 33  1  0
 14 15  2  0
 15 16  1  0
 15 34  1  0
 17 18  1  0
 17 35  1  1
 17 36  1  0
 18 19  1  0
 18 37  1  1
 18 38  1  0
 19 39  1  1
 19 40  1  0
 14 41  1  0
M  CHG  1  19   1
M  END
>  <attachment_point>  (5) 
33

>  <energies>  (5) 
[13583.213676819147, 13583.488228347564, 13583.488458331556, 13583.48841142506, 13583.48815101056, 13588.99735435348, 13583.48806175428, 13583.48872318851, 13583.488931244843, 13583.488777082997, 13583.488767663199, 13583.488143996086, 13583.487999310926, 13583.488418984714, 13583.48849223073, 13583.488379119768, 13583.488445358795, 13583.48818142275, 13588.88133439027, 13583.488239356708, 13583.488578182163, 13583.48774286691, 13583.48810601005, 13588.993636122967, 13588.880415177058, 13583.48825410023, 13583.488635596492, 13583.488808296037, 13583.488409096903, 13583.488195490921, 13583.48812795602, 13583.488620561786, 13583.488135029724, 13583.488284319892, 13583.48859550458, 13583.487279624605, 13583.488265325535, 13583.48881566606, 13583.488854636586, 13583.487901753646, 13583.488478151106, 13583.48805711211, 13583.48771823624, 13583.488481600763, 13583.488094649623, 13588.876121956637, 13583.488387977004, 13583.48815920784, 13588.879953010843, 13583.488604995422, 13583.488247804826, 13583.488631563821, 13583.48861113642, 13583.488507580161, 13583.48866924585, 13583.48844073373, 13583.488562433367, 13583.4882156362, 13583.487942275204, 13588.881890264885, 13583.488377069265, 13583.488851549097, 13583.488465537715, 13583.488039062064, 13583.48852895949, 13583.488324060881, 13583.487673966387, 13588.879830531036, 13588.87764560245, 13583.488733812539, 13583.488511680676, 13583.487332665023, 13583.487912589973, 13583.488363394017, 13588.139666324047, 13583.48840663778, 13583.488086861538, 13583.488633751826, 13583.487853637813, 13583.48867720751, 13583.48756610129, 13583.488292249509, 13588.882813320359, 13583.488459089702, 13583.4886133807, 13583.488440465493, 13583.488667106463, 13583.488521266087, 13588.850322378974, 13583.488639284988, 13583.48795060371, 13583.488212625254, 13583.488480531032, 13583.488225774941, 13583.488654769517, 13588.866103253302, 13583.488418954368, 13583.488852759947, 13583.488285997017, 13583.488642761866, 13583.487930820955, 13583.488572690218, 13583.487962740317, 13583.488562710862, 13583.488635301748, 13583.488743103057, 13583.488035803146, 13588.881795107784, 13583.488257808573, 13588.864997557588, 13583.488424297018, 13583.488257403671, 13583.488183278287, 13583.489203503215, 13583.488195165031, 13583.487632083465, 13583.48560519282, 13583.488591501784, 13583.489143593239, 13583.48858197603, 13583.488148085995, 13583.488597822849, 13583.48807128372, 13588.88173027809, 13583.488135247037, 13583.488416393457, 13583.487984798583, 13583.48860518728, 13588.992691759657, 13583.488451156467, 13583.488593953329, 13583.488664242568, 13583.48873573184, 13583.488812482074, 13583.487750942464, 13583.488408890222, 13583.48825219459, 13583.489087287538, 13583.488276438862, 13583.488240847844, 13583.488288422319, 13583.488318812066, 13583.487775702682, 13583.487739205886, 13583.488603519752, 13583.487973818123, 13583.4891138116, 13583.487936553116, 13583.487917432782, 13583.488379994646, 13583.488590714196, 13583.48851655408, 13583.488723084529, 13583.488524108145, 13583.48695120557, 13583.488511283767, 13583.488651304475, 13583.487879100665, 13583.48777120013, 13583.48853856029, 13588.994673332669, 13583.488877678106, 13583.488781632368, 13583.488417373155, 13583.48857012416, 13583.4884641962, 13583.488280946507, 13583.488672992222, 13583.487567432465, 13583.487924751773, 13583.48853332618, 13583.488427002196, 13583.488387082522, 13583.487846157033, 13588.994466813358, 13583.487881234427, 13583.488525436085, 13583.488260669323, 13583.488054409198, 13583.48851322217, 13583.488308003389, 13583.488482721954, 13583.488104481634, 13588.993670476375, 13583.487808205236, 13583.488861779855, 13583.488552478668, 13583.488623754054, 13583.489115114957, 13583.48885033446, 13583.488126258282, 13583.488537028165, 13583.487722962054, 13583.488527128153, 13588.993332710028, 13588.880793046032, 13583.48800706275, 13583.488391624369, 13583.488516254349, 13583.488295989455, 13583.48811968071]

>  <index>  (5) 
4

>  <Smiles>  (5) 
[H]c1c([H])c2c(c([H])c1Br)N(C(=O)C([H])([H])N1C([H])([H])C([H])([H])[N+]([H])([H])[C@]([H])(C([H])([H])[H])C1([H])[H])C([H])([H])C2([H])[H]

>  <score>  (5) 
<NA>

>  <h>  (5) 
33

>  <Training>  (5) 
False

>  <Success>  (5) 
nan

>  <enamine_searched>  (5) 
False

>  <enamine_id>  (5) 
nan

$$$$
ligandXIAP.pdb
     RDKit          3D

 44 46  0  0  1  0  0  0  0  0999 V2000
  -15.2897  -21.7948    0.0228 C   0  0  2  0  0  0  0  0  0  0  0  0
  -15.7759  -20.4808   -0.5605 C   0  0  2  0  0  0  0  0  0  0  0  0
  -15.7576  -20.4371   -2.0908 C   0  0  2  0  0  0  0  0  0  0  0  0
  -16.0982  -19.0923   -2.5451 N   0  0  0  0  0  0  0  0  0  0  0  0
  -16.4597  -19.0275   -3.9394 C   0  0  2  0  0  0  0  0  0  0  0  0
  -15.3630  -19.2923   -4.9909 C   0  0  0  0  0  0  0  0  0  0  0  0
  -14.2489  -19.7073   -4.7170 O   0  0  0  0  0  0  0  0  0  0  0  0
  -15.7320  -19.0261   -6.2934 N   0  0  0  0  0  0  0  0  0  0  0  0
  -17.1064  -18.8770   -6.8019 C   0  0  2  0  0  0  0  0  0  0  0  0
  -17.0065  -19.2768   -8.2872 C   0  0  2  0  0  0  0  0  0  0  0  0
  -15.5304  -19.1480   -8.5836 C   0  0  0  0  0  0  0  0  0  0  0  0
  -14.8381  -19.1623   -9.7805 C   0  0  0  0  0  0  0  0  0  0  0  0
  -13.4448  -19.0820   -9.7650 C   0  0  0  0  0  0  0  0  0  0  0  0
  -12.7660  -18.9918   -8.5494 C   0  0  0  0  0  0  0  0  0  0  0  0
  -13.4464  -18.9542   -7.3374 C   0  0  0  0  0  0  0  0  0  0  0  0
  -14.8319  -19.0509   -7.3752 C   0  0  0  0  0  0  0  0  0  0  0  0
  -15.0922  -18.1225   -2.1191 C   0  0  2  0  0  0  0  0  0  0  0  0
  -15.0667  -18.0590   -0.5849 C   0  0  1  0  0  0  0  0  0  0  0  0
  -14.8927  -19.3951    0.0114 N   0  0  2  0  0  0  0  0  0  0  0  0
  -14.2388  -21.9612   -0.2413 H   0  0  0  0  0  0  0  0  0  0  0  0
  -15.8670  -22.6508   -0.3318 H   0  0  0  0  0  0  0  0  0  0  0  0
  -15.3658  -21.7660    1.1150 H   0  0  0  0  0  0  0  0  0  0  0  0
  -16.7997  -20.2782   -0.2366 H   0  0  0  0  0  0  0  0  0  0  0  0
  -16.5171  -21.1319   -2.4687 H   0  0  0  0  0  0  0  0  0  0  0  0
  -14.7760  -20.7622   -2.4802 H   0  0  0  0  0  0  0  0  0  0  0  0
  -16.9073  -18.0455   -4.1509 H   0  0  0  0  0  0  0  0  0  0  0  0
  -17.2629  -19.7594   -4.1062 H   0  0  0  0  0  0  0  0  0  0  0  0
  -17.4352  -17.8365   -6.6948 H   0  0  0  0  0  0  0  0  0  0  0  0
  -17.7923  -19.5166   -6.2420 H   0  0  0  0  0  0  0  0  0  0  0  0
  -17.6337  -18.6448   -8.9208 H   0  0  0  0  0  0  0  0  0  0  0  0
  -17.3340  -20.3145   -8.4189 H   0  0  0  0  0  0  0  0  0  0  0  0
  -15.3617  -19.2472  -10.7289 H   0  0  0  0  0  0  0  0  0  0  0  0
  -12.8839  -19.0936  -10.6940 H   0  0  0  0  0  0  0  0  0  0  0  0
  -12.9161  -18.8764   -6.3945 H   0  0  0  0  0  0  0  0  0  0  0  0
  -15.3632  -17.1340   -2.5112 H   0  0  0  0  0  0  0  0  0  0  0  0
  -14.0923  -18.3720   -2.5138 H   0  0  0  0  0  0  0  0  0  0  0  0
  -14.2518  -17.4155   -0.2550 H   0  0  0  0  0  0  0  0  0  0  0  0
  -16.0086  -17.6277   -0.2430 H   0  0  0  0  0  0  0  0  0  0  0  0
  -13.8947  -19.6837   -0.1517 H   0  0  0  0  0  0  0  0  0  0  0  0
  -15.0876  -19.3724    1.0350 H   0  0  0  0  0  0  0  0  0  0  0  0
  -11.2617  -18.9524   -8.5141 C   0  0  0  0  0  0  0  0  0  0  0  0
  -10.7101  -19.2286   -9.7120 F   0  0  0  0  0  0  0  0  0  0  0  0
  -10.7937  -17.7506   -8.1324 F   0  0  0  0  0  0  0  0  0  0  0  0
  -10.7713  -19.8486   -7.6337 F   0  0  0  0  0  0  0  0  0  0  0  0
  1  2  1  0
  1 20  1  1
  1 21  1  0
  1 22  1  0
  2  3  1  0
  2 19  1  0
  2 23  1  1
  3  4  1  0
  3 24  1  6
  3 25  1  0
  4  5  1  0
  4 17  1  0
  5  6  1  0
  5 26  1  6
  5 27  1  0
  6  7  2  0
  6  8  1  0
  8  9  1  0
  8 16  1  0
  9 28  1  6
  9 29  1  0
  9 10  1  0
 10 11  1  0
 10 30  1  6
 10 31  1  0
 11 12  1  0
 11 16  2  0
 12 13  2  0
 12 32  1  0
 13 14  1  0
 13 33  1  0
 14 15  2  0
 15 16  1  0
 15 34  1  0
 17 18  1  0
 17 35  1  6
 17 36  1  0
 18 19  1  0
 18 37  1  1
 18 38  1  0
 19 39  1  6
 19 40  1  0
 41 42  1  0
 41 43  1  0
 41 44  1  0
 14 41  1  0
M  CHG  1  19   1
M  END
>  <attachment_point>  (6) 
33

>  <energies>  (6) 
[-715197.8675795181, -715198.0054423817, -715197.5582005472, -715197.1193117267, -715197.4238524014, -715197.3701385509, -715197.1137926702, -715197.3313534486, -715197.1319431379, -715197.5829654677, -715197.4841337956, -715197.4136623221, -715197.5662203565, -715197.1169896007, -715197.4802905564, -715197.3323342715, -715197.4724116672, -715197.4099597821, -715197.1902420794, -715197.5383499975, -715197.3845759185, -715197.9694430622, -715197.3346714426, -715197.3716591387, -715197.1798227923, -715197.108182436, -715197.409788501, -715197.5642593683, -715197.112839607, -715197.5751154112, -715195.4382322065, -715197.3993047577, -715197.5845793716, -715197.4009615047, -715197.3320634649, -715190.1001306422, -715197.4316148706, -715197.9778852875, -715197.4675157883, -715199.95704163, -715197.1114077122, -715197.4750010159, -715196.0278768876, -715197.4114772001, -715197.328972793, -715197.9756989779, -715200.1647961198, -715197.4809035418, -715199.9986886755, -715197.5075155207, -715196.071632108, -715197.4111801636, -715197.4099222904, -715197.9943050746, -715197.3995749088, -715197.4034032426, -715197.186788523, -715197.4052970058, -715190.0971778812, -715197.907564608, -715197.5184628183, -715199.9963426458, -715197.5335618531, -715190.9405628426, -715197.1300660515, -715197.1585098624, -715199.9719262304, -715197.5172454541, -715197.1388979962, -715197.5659197485, -715197.3989967087, -715197.5602873653, -715197.50920186, -715197.477834553, -715197.4136138076, -715199.880326228, -715197.1655446376]

>  <index>  (6) 
5

>  <Smiles>  (6) 
[H]c1c([H])c2c(c([H])c1C(F)(F)F)N(C(=O)C([H])([H])N1C([H])([H])C([H])([H])[N+]([H])([H])[C@]([H])(C([H])([H])[H])C1([H])[H])C([H])([H])C2([H])[H]

>  <score>  (6) 
<NA>

>  <h>  (6) 
33

>  <Training>  (6) 
False

>  <Success>  (6) 
nan

>  <enamine_searched>  (6) 
False

>  <enamine_id>  (6) 
nan

$$$$
ligandXIAP.pdb
     RDKit          3D

 50 52  0  0  1  0  0  0  0  0999 V2000
  -15.3164  -21.7608   -0.1255 C   0  0  2  0  0  0  0  0  0  0  0  0
  -15.8249  -20.4353   -0.6616 C   0  0  2  0  0  0  0  0  0  0  0  0
  -15.8523  -20.3593   -2.1886 C   0  0  2  0  0  0  0  0  0  0  0  0
  -16.2282  -19.0080   -2.5969 N   0  0  0  0  0  0  0  0  0  0  0  0
  -16.6229  -18.9255   -3.9809 C   0  0  2  0  0  0  0  0  0  0  0  0
  -15.5252  -19.1273   -5.0409 C   0  0  0  0  0  0  0  0  0  0  0  0
  -14.4010  -19.5271   -4.7774 O   0  0  0  0  0  0  0  0  0  0  0  0
  -15.9061  -18.8395   -6.3336 N   0  0  0  0  0  0  0  0  0  0  0  0
  -17.2823  -18.6511   -6.8267 C   0  0  2  0  0  0  0  0  0  0  0  0
  -17.2063  -18.9380   -8.3473 C   0  0  2  0  0  0  0  0  0  0  0  0
  -15.7231  -19.0485   -8.6202 C   0  0  0  0  0  0  0  0  0  0  0  0
  -15.0147  -19.2474   -9.7913 C   0  0  0  0  0  0  0  0  0  0  0  0
  -13.6227  -19.3813   -9.7416 C   0  0  0  0  0  0  0  0  0  0  0  0
  -12.9393  -19.2754   -8.5229 C   0  0  0  0  0  0  0  0  0  0  0  0
  -13.6439  -18.9773   -7.3642 C   0  0  0  0  0  0  0  0  0  0  0  0
  -15.0254  -18.9567   -7.4176 C   0  0  0  0  0  0  0  0  0  0  0  0
  -15.2000  -18.0464   -2.1979 C   0  0  2  0  0  0  0  0  0  0  0  0
  -15.1295  -17.9993   -0.6651 C   0  0  2  0  0  0  0  0  0  0  0  0
  -14.9396  -19.3457   -0.0894 N   0  0  1  0  0  0  0  0  0  0  0  0
  -15.3748  -21.7673    0.9689 H   0  0  0  0  0  0  0  0  0  0  0  0
  -14.2698  -21.9089   -0.4184 H   0  0  0  0  0  0  0  0  0  0  0  0
  -15.8968  -22.6076   -0.5008 H   0  0  0  0  0  0  0  0  0  0  0  0
  -16.8411  -20.2477   -0.3084 H   0  0  0  0  0  0  0  0  0  0  0  0
  -16.6102  -21.0594   -2.5604 H   0  0  0  0  0  0  0  0  0  0  0  0
  -14.8794  -20.6552   -2.6192 H   0  0  0  0  0  0  0  0  0  0  0  0
  -17.1179  -17.9605   -4.1632 H   0  0  0  0  0  0  0  0  0  0  0  0
  -17.3938  -19.6913   -4.1529 H   0  0  0  0  0  0  0  0  0  0  0  0
  -17.6201  -17.6262   -6.6333 H   0  0  0  0  0  0  0  0  0  0  0  0
  -17.9505  -19.3410   -6.3093 H   0  0  0  0  0  0  0  0  0  0  0  0
  -17.6708  -18.1323   -8.9223 H   0  0  0  0  0  0  0  0  0  0  0  0
  -17.7316  -19.8684   -8.5897 H   0  0  0  0  0  0  0  0  0  0  0  0
  -15.5338  -19.3012  -10.7446 H   0  0  0  0  0  0  0  0  0  0  0  0
  -13.0642  -19.5663  -10.6556 H   0  0  0  0  0  0  0  0  0  0  0  0
  -13.1292  -18.7681   -6.4324 H   0  0  0  0  0  0  0  0  0  0  0  0
  -15.4721  -17.0533   -2.5769 H   0  0  0  0  0  0  0  0  0  0  0  0
  -14.2160  -18.3023   -2.6261 H   0  0  0  0  0  0  0  0  0  0  0  0
  -16.0638  -17.5778   -0.2923 H   0  0  0  0  0  0  0  0  0  0  0  0
  -14.3046  -17.3591   -0.3503 H   0  0  0  0  0  0  0  0  0  0  0  0
  -15.1225  -19.3336    0.9361 H   0  0  0  0  0  0  0  0  0  0  0  0
  -13.9409  -19.6237   -0.2683 H   0  0  0  0  0  0  0  0  0  0  0  0
  -11.4441  -19.4684   -8.3792 C   0  0  0  0  0  0  0  0  0  0  0  0
  -11.1449  -20.5014   -7.2844 C   0  0  0  0  0  0  0  0  0  0  0  0
  -10.7619  -18.1433   -8.0230 C   0  0  0  0  0  0  0  0  0  0  0  0
  -11.0428  -19.8318   -9.3342 H   0  0  0  0  0  0  0  0  0  0  0  0
  -11.4776  -21.5017   -7.5771 H   0  0  0  0  0  0  0  0  0  0  0  0
  -10.0726  -20.5325   -7.0700 H   0  0  0  0  0  0  0  0  0  0  0  0
  -11.6547  -20.2454   -6.3482 H   0  0  0  0  0  0  0  0  0  0  0  0
  -10.9876  -17.3597   -8.7518 H   0  0  0  0  0  0  0  0  0  0  0  0
  -11.0926  -17.7846   -7.0405 H   0  0  0  0  0  0  0  0  0  0  0  0
   -9.6763  -18.2767   -7.9768 H   0  0  0  0  0  0  0  0  0  0  0  0
  1  2  1  0
  1 20  1  1
  1 21  1  0
  1 22  1  0
  2  3  1  0
  2 19  1  0
  2 23  1  1
  3  4  1  0
  3 24  1  6
  3 25  1  0
  4  5  1  0
  4 17  1  0
  5  6  1  0
  5 26  1  1
  5 27  1  0
  6  7  2  0
  6  8  1  0
  8  9  1  0
  8 16  1  0
  9 28  1  6
  9 29  1  0
  9 10  1  0
 10 11  1  0
 10 30  1  6
 10 31  1  0
 11 12  1  0
 11 16  2  0
 12 13  2  0
 12 32  1  0
 13 14  1  0
 13 33  1  0
 14 15  2  0
 15 16  1  0
 15 34  1  0
 17 18  1  0
 17 35  1  6
 17 36  1  0
 18 19  1  0
 18 37  1  1
 18 38  1  0
 19 39  1  1
 19 40  1  0
 41 42  1  0
 41 43  1  0
 41 44  1  0
 42 45  1  0
 42 46  1  0
 42 47  1  0
 43 48  1  0
 43 49  1  0
 43 50  1  0
 14 41  1  0
M  CHG  1  19   1
M  END
>  <attachment_point>  (7) 
33

>  <energies>  (7) 
[-577730.7326603712, -577731.6149556943, -577729.1573081367, -577729.1574463553, -577729.0684302533, -577732.1240914441, -577731.7645395246, -577728.7613811248, -577731.6452289132, -577729.3206823178, -577731.8908628579, -577731.6399889166, -577721.4309488428, -577731.877859956, -577731.738253495, -577729.1543877586, -577729.3133629016, -577729.2800847241, -577729.1574325858, -577728.4712718253, -577721.5851746979, -577731.5597209994, -577731.6107980432, -577729.2934198965, -577732.0945746747, -577729.2436709804, -577729.1560657528, -577728.0421953582, -577731.3861586975, -577721.4956136907, -577729.342106856, -577731.8137699183, -577731.52063153, -577726.2220380664, -577729.1435931034, -577729.0438448744, -577729.246704694, -577731.7309632989, -577731.8554571596, -577729.1352736795, -577729.1361453321, -577728.0416384531, -577731.687382604, -577732.1125949187, -577721.3488074708, -577729.2120794618, -577731.6452994016, -577729.1411345397, -577729.285510538, -577731.7091416665, -577732.0191209432, -577729.3292015675, -577728.8638909973, -577729.2279009309, -577726.1933052297, -577729.1537138466, -577729.303895214, -577731.5282668908, -577729.2316106725, -577729.3415622996, -577731.7491996079, -577721.2922612849, -577731.6189951721, -577728.7324343283, -577729.244230532, -577729.3660989281, -577729.2870606935, -577729.3306047544, -577728.8519546195, -577729.2261672778, -577720.7901179868, -577726.2167200015, -577721.4087462565, -577731.5041881467, -577731.4662463029, -577729.198066282, -577731.4877060421, -577729.2349365393, -577731.6563582987, -577722.9994246411, -577731.6731831867, -577721.3721045166, -577729.2676418165, -577732.0384531314, -577731.4013638902, -577729.3579632045, -577731.7320828524, -577725.3046553163, -577726.2843222817, -577729.2542035191, -577732.0631227724, -577732.13954282, -577729.1899712314, -577729.1733486581, -577729.1329428777, -577731.8783608087, -577729.3355550041, -577729.2723121889, -577728.8635505184, -577731.870566886, -577721.5477698825, -577732.0701987435, -577729.0468716624, -577727.6778256156, -577729.3730112542, -577729.1576014449, -577731.4723436873, -577731.7357792996, -577731.8097909614, -577731.4509508732, -577726.0863790832, -577728.8841280008, -577731.8026686623, -577728.8987046729, -577730.2092738826, -577728.9968812277, -577731.6637170786, -577721.2497229577]

>  <index>  (7) 
6

>  <Smiles>  (7) 
[H]c1c([H])c(C([H])(C([H])([H])[H])C([H])([H])[H])c([H])c2c1C([H])([H])C([H])([H])N2C(=O)C([H])([H])N1C([H])([H])C([H])([H])[N+]([H])([H])[C@]([H])(C([H])([H])[H])C1([H])[H]

>  <score>  (7) 
<NA>

>  <h>  (7) 
33

>  <Training>  (7) 
False

>  <Success>  (7) 
nan

>  <enamine_searched>  (7) 
False

>  <enamine_id>  (7) 
nan

$$$$
ligandXIAP.pdb
     RDKit          3D

 47 49  0  0  1  0  0  0  0  0999 V2000
  -15.3111  -21.6190   -0.2520 C   0  0  2  0  0  0  0  0  0  0  0  0
  -15.8331  -20.3085   -0.8116 C   0  0  2  0  0  0  0  0  0  0  0  0
  -15.7472  -20.2169   -2.3385 C   0  0  2  0  0  0  0  0  0  0  0  0
  -16.1791  -18.8891   -2.7595 N   0  0  0  0  0  0  0  0  0  0  0  0
  -16.5518  -18.7929   -4.1467 C   0  0  2  0  0  0  0  0  0  0  0  0
  -15.4862  -19.0965   -5.2154 C   0  0  0  0  0  0  0  0  0  0  0  0
  -14.3598  -19.4858   -4.9488 O   0  0  0  0  0  0  0  0  0  0  0  0
  -15.9105  -18.9009   -6.5123 N   0  0  0  0  0  0  0  0  0  0  0  0
  -17.2748  -18.5407   -6.9380 C   0  0  2  0  0  0  0  0  0  0  0  0
  -17.2904  -18.7637   -8.4653 C   0  0  2  0  0  0  0  0  0  0  0  0
  -15.8358  -18.9666   -8.8126 C   0  0  0  0  0  0  0  0  0  0  0  0
  -15.1983  -19.0715  -10.0359 C   0  0  0  0  0  0  0  0  0  0  0  0
  -13.8349  -19.3649  -10.0773 C   0  0  0  0  0  0  0  0  0  0  0  0
  -13.1406  -19.5561   -8.8824 C   0  0  0  0  0  0  0  0  0  0  0  0
  -13.7424  -19.3966   -7.6450 C   0  0  0  0  0  0  0  0  0  0  0  0
  -15.0930  -19.0904   -7.6355 C   0  0  0  0  0  0  0  0  0  0  0  0
  -15.2443  -17.8761   -2.2831 C   0  0  2  0  0  0  0  0  0  0  0  0
  -15.2825  -17.8473   -0.7482 C   0  0  2  0  0  0  0  0  0  0  0  0
  -15.0344  -19.1851   -0.1761 N   0  0  1  0  0  0  0  0  0  0  0  0
  -15.9268  -22.4671   -0.5612 H   0  0  0  0  0  0  0  0  0  0  0  0
  -15.3135  -21.5834    0.8436 H   0  0  0  0  0  0  0  0  0  0  0  0
  -14.2834  -21.8013   -0.5900 H   0  0  0  0  0  0  0  0  0  0  0  0
  -16.8777  -20.1646   -0.5256 H   0  0  0  0  0  0  0  0  0  0  0  0
  -16.4120  -20.9648   -2.7860 H   0  0  0  0  0  0  0  0  0  0  0  0
  -14.7180  -20.4356   -2.6770 H   0  0  0  0  0  0  0  0  0  0  0  0
  -16.9441  -17.7832   -4.3364 H   0  0  0  0  0  0  0  0  0  0  0  0
  -17.3914  -19.4838   -4.3157 H   0  0  0  0  0  0  0  0  0  0  0  0
  -17.5085  -17.5000   -6.6863 H   0  0  0  0  0  0  0  0  0  0  0  0
  -17.9941  -19.1828   -6.4351 H   0  0  0  0  0  0  0  0  0  0  0  0
  -17.7394  -17.9172   -8.9897 H   0  0  0  0  0  0  0  0  0  0  0  0
  -17.8804  -19.6530   -8.7114 H   0  0  0  0  0  0  0  0  0  0  0  0
  -15.7546  -18.9611  -10.9613 H   0  0  0  0  0  0  0  0  0  0  0  0
  -13.3078  -19.4687  -11.0191 H   0  0  0  0  0  0  0  0  0  0  0  0
  -13.2129  -19.5380   -6.7128 H   0  0  0  0  0  0  0  0  0  0  0  0
  -15.5547  -16.8955   -2.6626 H   0  0  0  0  0  0  0  0  0  0  0  0
  -14.2158  -18.0613   -2.6448 H   0  0  0  0  0  0  0  0  0  0  0  0
  -16.2737  -17.5072   -0.4430 H   0  0  0  0  0  0  0  0  0  0  0  0
  -14.5388  -17.1478   -0.3662 H   0  0  0  0  0  0  0  0  0  0  0  0
  -15.2613  -19.2018    0.8400 H   0  0  0  0  0  0  0  0  0  0  0  0
  -14.0143  -19.4121   -0.3053 H   0  0  0  0  0  0  0  0  0  0  0  0
  -11.5185  -20.2889   -8.9214 S   0  0  0  0  0  6  0  0  0  0  0  0
  -10.6264  -19.4322   -7.6406 C   0  0  0  0  0  0  0  0  0  0  0  0
  -10.8706  -19.9624  -10.1899 O   0  0  0  0  0  0  0  0  0  0  0  0
  -11.6403  -21.6899   -8.5325 O   0  0  0  0  0  0  0  0  0  0  0  0
  -10.8134  -18.3596   -7.7277 H   0  0  0  0  0  0  0  0  0  0  0  0
   -9.5662  -19.6394   -7.7995 H   0  0  0  0  0  0  0  0  0  0  0  0
  -10.9312  -19.7978   -6.6571 H   0  0  0  0  0  0  0  0  0  0  0  0
  1  2  1  0
  1 20  1  1
  1 21  1  0
  1 22  1  0
  2  3  1  0
  2 19  1  0
  2 23  1  6
  3  4  1  0
  3 24  1  6
  3 25  1  0
  4  5  1  0
  4 17  1  0
  5  6  1  0
  5 26  1  6
  5 27  1  0
  6  7  2  0
  6  8  1  0
  8  9  1  0
  8 16  1  0
  9 28  1  6
  9 29  1  0
  9 10  1  0
 10 11  1  0
 10 30  1  6
 10 31  1  0
 11 12  1  0
 11 16  2  0
 12 13  2  0
 12 32  1  0
 13 14  1  0
 13 33  1  0
 14 15  2  0
 15 16  1  0
 15 34  1  0
 17 18  1  0
 17 35  1  6
 17 36  1  0
 18 19  1  0
 18 37  1  6
 18 38  1  0
 19 39  1  1
 19 40  1  0
 41 42  1  0
 41 43  2  0
 41 44  2  0
 42 45  1  0
 42 46  1  0
 42 47  1  0
 14 41  1  0
M  CHG  1  19   1
M  END
>  <attachment_point>  (8) 
33

>  <energies>  (8) 
[-872616.2359802837]

>  <index>  (8) 
7

>  <Smiles>  (8) 
[H]c1c([H])c(S(=O)(=O)C([H])([H])[H])c([H])c2c1C([H])([H])C([H])([H])N2C(=O)C([H])([H])N1C([H])([H])C([H])([H])[N+]([H])([H])[C@]([H])(C([H])([H])[H])C1([H])[H]

>  <score>  (8) 
<NA>

>  <h>  (8) 
33

>  <Training>  (8) 
False

>  <Success>  (8) 
nan

>  <enamine_searched>  (8) 
False

>  <enamine_id>  (8) 
nan

$$$$
