ligandXIAP.pdb
     RDKit          3D

 44 46  0  0  1  0  0  0  0  0999 V2000
  -15.2897  -21.7948    0.0228 C   0  0  0  0  0  0  0  0  0  0  0  0
  -15.7759  -20.4808   -0.5605 C   0  0  2  0  0  0  0  0  0  0  0  0
  -15.7576  -20.4371   -2.0908 C   0  0  0  0  0  0  0  0  0  0  0  0
  -16.0982  -19.0923   -2.5451 N   0  0  0  0  0  0  0  0  0  0  0  0
  -16.4597  -19.0275   -3.9394 C   0  0  0  0  0  0  0  0  0  0  0  0
  -15.3630  -19.2923   -4.9909 C   0  0  0  0  0  0  0  0  0  0  0  0
  -14.2489  -19.7073   -4.7170 O   0  0  0  0  0  0  0  0  0  0  0  0
  -15.7320  -19.0261   -6.2934 N   0  0  0  0  0  0  0  0  0  0  0  0
  -17.1064  -18.8770   -6.8019 C   0  0  0  0  0  0  0  0  0  0  0  0
  -17.0065  -19.2768   -8.2872 C   0  0  0  0  0  0  0  0  0  0  0  0
  -15.5304  -19.1480   -8.5836 C   0  0  0  0  0  0  0  0  0  0  0  0
  -14.8381  -19.1623   -9.7805 C   0  0  0  0  0  0  0  0  0  0  0  0
  -13.4448  -19.0820   -9.7650 C   0  0  0  0  0  0  0  0  0  0  0  0
  -12.7660  -18.9918   -8.5494 C   0  0  0  0  0  0  0  0  0  0  0  0
  -13.4464  -18.9542   -7.3374 C   0  0  0  0  0  0  0  0  0  0  0  0
  -14.8319  -19.0509   -7.3752 C   0  0  0  0  0  0  0  0  0  0  0  0
  -15.0922  -18.1225   -2.1191 C   0  0  0  0  0  0  0  0  0  0  0  0
  -15.0667  -18.0590   -0.5849 C   0  0  0  0  0  0  0  0  0  0  0  0
  -14.8927  -19.3951    0.0114 N   0  0  0  0  0  0  0  0  0  0  0  0
  -14.2388  -21.9612   -0.2413 H   0  0  0  0  0  0  0  0  0  0  0  0
  -15.8670  -22.6508   -0.3318 H   0  0  0  0  0  0  0  0  0  0  0  0
  -15.3658  -21.7660    1.1150 H   0  0  0  0  0  0  0  0  0  0  0  0
  -16.7997  -20.2782   -0.2366 H   0  0  0  0  0  0  0  0  0  0  0  0
  -16.5171  -21.1319   -2.4687 H   0  0  0  0  0  0  0  0  0  0  0  0
  -14.7760  -20.7622   -2.4802 H   0  0  0  0  0  0  0  0  0  0  0  0
  -16.9073  -18.0455   -4.1509 H   0  0  0  0  0  0  0  0  0  0  0  0
  -17.2629  -19.7594   -4.1062 H   0  0  0  0  0  0  0  0  0  0  0  0
  -17.4352  -17.8365   -6.6948 H   0  0  0  0  0  0  0  0  0  0  0  0
  -17.7923  -19.5166   -6.2420 H   0  0  0  0  0  0  0  0  0  0  0  0
  -17.6337  -18.6448   -8.9208 H   0  0  0  0  0  0  0  0  0  0  0  0
  -17.3340  -20.3145   -8.4189 H   0  0  0  0  0  0  0  0  0  0  0  0
  -15.3617  -19.2472  -10.7289 H   0  0  0  0  0  0  0  0  0  0  0  0
  -12.8839  -19.0936  -10.6940 H   0  0  0  0  0  0  0  0  0  0  0  0
  -12.9161  -18.8764   -6.3945 H   0  0  0  0  0  0  0  0  0  0  0  0
  -15.3632  -17.1340   -2.5112 H   0  0  0  0  0  0  0  0  0  0  0  0
  -14.0923  -18.3720   -2.5138 H   0  0  0  0  0  0  0  0  0  0  0  0
  -14.2518  -17.4155   -0.2550 H   0  0  0  0  0  0  0  0  0  0  0  0
  -16.0086  -17.6277   -0.2430 H   0  0  0  0  0  0  0  0  0  0  0  0
  -13.8947  -19.6837   -0.1517 H   0  0  0  0  0  0  0  0  0  0  0  0
  -15.0876  -19.3724    1.0350 H   0  0  0  0  0  0  0  0  0  0  0  0
  -11.2617  -18.9524   -8.5141 C   0  0  0  0  0  0  0  0  0  0  0  0
  -10.7101  -19.2286   -9.7120 F   0  0  0  0  0  0  0  0  0  0  0  0
  -10.7937  -17.7506   -8.1324 F   0  0  0  0  0  0  0  0  0  0  0  0
  -10.7713  -19.8486   -7.6337 F   0  0  0  0  0  0  0  0  0  0  0  0
  1  2  1  0
  1 20  1  0
  1 21  1  0
  1 22  1  0
  2  3  1  0
  2 19  1  0
  2 23  1  1
  3  4  1  0
  3 24  1  0
  3 25  1  0
  4  5  1  0
  4 17  1  0
  5  6  1  0
  5 26  1  0
  5 27  1  0
  6  7  2  0
  6  8  1  0
  8  9  1  0
  8 16  1  0
  9 28  1  0
  9 29  1  0
  9 10  1  0
 10 11  1  0
 10 30  1  0
 10 31  1  0
 11 12  1  0
 11 16  2  0
 12 13  2  0
 12 32  1  0
 13 14  1  0
 13 33  1  0
 14 15  2  0
 15 16  1  0
 15 34  1  0
 17 18  1  0
 17 35  1  0
 17 36  1  0
 18 19  1  0
 18 37  1  0
 18 38  1  0
 19 39  1  0
 19 40  1  0
 41 42  1  0
 41 43  1  0
 41 44  1  0
 14 41  1  0
M  CHG  1  19   1
M  END
>  <attachment_point>  (1) 
33

>  <energies>  (1) 
[-715197.8675795181, -715198.0054423817, -715197.5582005472, -715197.1193117267, -715197.4238524014, -715197.3701385509, -715197.1137926702, -715197.3313534486, -715197.1319431379, -715197.5829654677, -715197.4841337956, -715197.4136623221, -715197.5662203565, -715197.1169896007, -715197.4802905564, -715197.3323342715, -715197.4724116672, -715197.4099597821, -715197.1902420794, -715197.5383499975, -715197.3845759185, -715197.9694430622, -715197.3346714426, -715197.3716591387, -715197.1798227923, -715197.108182436, -715197.409788501, -715197.5642593683, -715197.112839607, -715197.5751154112, -715195.4382322065, -715197.3993047577, -715197.5845793716, -715197.4009615047, -715197.3320634649, -715190.1001306422, -715197.4316148706, -715197.9778852875, -715197.4675157883, -715199.95704163, -715197.1114077122, -715197.4750010159, -715196.0278768876, -715197.4114772001, -715197.328972793, -715197.9756989779, -715200.1647961198, -715197.4809035418, -715199.9986886755, -715197.5075155207, -715196.071632108, -715197.4111801636, -715197.4099222904, -715197.9943050746, -715197.3995749088, -715197.4034032426, -715197.186788523, -715197.4052970058, -715190.0971778812, -715197.907564608, -715197.5184628183, -715199.9963426458, -715197.5335618531, -715190.9405628426, -715197.1300660515, -715197.1585098624, -715199.9719262304, -715197.5172454541, -715197.1388979962, -715197.5659197485, -715197.3989967087, -715197.5602873653, -715197.50920186, -715197.477834553, -715197.4136138076, -715199.880326228, -715197.1655446376]

>  <index>  (1) 
5

>  <Smiles>  (1) 
[H]c1c([H])c2c(c([H])c1C(F)(F)F)N(C(=O)C([H])([H])N1C([H])([H])C([H])([H])[N+]([H])([H])[C@]([H])(C([H])([H])[H])C1([H])[H])C([H])([H])C2([H])[H]

>  <score>  (1) 
<NA>

>  <h>  (1) 
33

>  <Training>  (1) 
False

>  <Success>  (1) 
nan

>  <enamine_searched>  (1) 
False

>  <enamine_id>  (1) 
nan

$$$$
