ligandXIAP.pdb
     RDKit          3D

 50 52  0  0  1  0  0  0  0  0999 V2000
  -15.3164  -21.7608   -0.1255 C   0  0  0  0  0  0  0  0  0  0  0  0
  -15.8249  -20.4353   -0.6616 C   0  0  2  0  0  0  0  0  0  0  0  0
  -15.8523  -20.3593   -2.1886 C   0  0  0  0  0  0  0  0  0  0  0  0
  -16.2282  -19.0080   -2.5969 N   0  0  0  0  0  0  0  0  0  0  0  0
  -16.6229  -18.9255   -3.9809 C   0  0  0  0  0  0  0  0  0  0  0  0
  -15.5252  -19.1273   -5.0409 C   0  0  0  0  0  0  0  0  0  0  0  0
  -14.4010  -19.5271   -4.7774 O   0  0  0  0  0  0  0  0  0  0  0  0
  -15.9061  -18.8395   -6.3336 N   0  0  0  0  0  0  0  0  0  0  0  0
  -17.2823  -18.6511   -6.8267 C   0  0  0  0  0  0  0  0  0  0  0  0
  -17.2063  -18.9380   -8.3473 C   0  0  0  0  0  0  0  0  0  0  0  0
  -15.7231  -19.0485   -8.6202 C   0  0  0  0  0  0  0  0  0  0  0  0
  -15.0147  -19.2474   -9.7913 C   0  0  0  0  0  0  0  0  0  0  0  0
  -13.6227  -19.3813   -9.7416 C   0  0  0  0  0  0  0  0  0  0  0  0
  -12.9393  -19.2754   -8.5229 C   0  0  0  0  0  0  0  0  0  0  0  0
  -13.6439  -18.9773   -7.3642 C   0  0  0  0  0  0  0  0  0  0  0  0
  -15.0254  -18.9567   -7.4176 C   0  0  0  0  0  0  0  0  0  0  0  0
  -15.2000  -18.0464   -2.1979 C   0  0  0  0  0  0  0  0  0  0  0  0
  -15.1295  -17.9993   -0.6651 C   0  0  0  0  0  0  0  0  0  0  0  0
  -14.9396  -19.3457   -0.0894 N   0  0  0  0  0  0  0  0  0  0  0  0
  -15.3748  -21.7673    0.9689 H   0  0  0  0  0  0  0  0  0  0  0  0
  -14.2698  -21.9089   -0.4184 H   0  0  0  0  0  0  0  0  0  0  0  0
  -15.8968  -22.6076   -0.5008 H   0  0  0  0  0  0  0  0  0  0  0  0
  -16.8411  -20.2477   -0.3084 H   0  0  0  0  0  0  0  0  0  0  0  0
  -16.6102  -21.0594   -2.5604 H   0  0  0  0  0  0  0  0  0  0  0  0
  -14.8794  -20.6552   -2.6192 H   0  0  0  0  0  0  0  0  0  0  0  0
  -17.1179  -17.9605   -4.1632 H   0  0  0  0  0  0  0  0  0  0  0  0
  -17.3938  -19.6913   -4.1529 H   0  0  0  0  0  0  0  0  0  0  0  0
  -17.6201  -17.6262   -6.6333 H   0  0  0  0  0  0  0  0  0  0  0  0
  -17.9505  -19.3410   -6.3093 H   0  0  0  0  0  0  0  0  0  0  0  0
  -17.6708  -18.1323   -8.9223 H   0  0  0  0  0  0  0  0  0  0  0  0
  -17.7316  -19.8684   -8.5897 H   0  0  0  0  0  0  0  0  0  0  0  0
  -15.5338  -19.3012  -10.7446 H   0  0  0  0  0  0  0  0  0  0  0  0
  -13.0642  -19.5663  -10.6556 H   0  0  0  0  0  0  0  0  0  0  0  0
  -13.1292  -18.7681   -6.4324 H   0  0  0  0  0  0  0  0  0  0  0  0
  -15.4721  -17.0533   -2.5769 H   0  0  0  0  0  0  0  0  0  0  0  0
  -14.2160  -18.3023   -2.6261 H   0  0  0  0  0  0  0  0  0  0  0  0
  -16.0638  -17.5778   -0.2923 H   0  0  0  0  0  0  0  0  0  0  0  0
  -14.3046  -17.3591   -0.3503 H   0  0  0  0  0  0  0  0  0  0  0  0
  -15.1225  -19.3336    0.9361 H   0  0  0  0  0  0  0  0  0  0  0  0
  -13.9409  -19.6237   -0.2683 H   0  0  0  0  0  0  0  0  0  0  0  0
  -11.4441  -19.4684   -8.3792 C   0  0  0  0  0  0  0  0  0  0  0  0
  -11.1449  -20.5014   -7.2844 C   0  0  0  0  0  0  0  0  0  0  0  0
  -10.7619  -18.1433   -8.0230 C   0  0  0  0  0  0  0  0  0  0  0  0
  -11.0428  -19.8318   -9.3342 H   0  0  0  0  0  0  0  0  0  0  0  0
  -11.4776  -21.5017   -7.5771 H   0  0  0  0  0  0  0  0  0  0  0  0
  -10.0726  -20.5325   -7.0700 H   0  0  0  0  0  0  0  0  0  0  0  0
  -11.6547  -20.2454   -6.3482 H   0  0  0  0  0  0  0  0  0  0  0  0
  -10.9876  -17.3597   -8.7518 H   0  0  0  0  0  0  0  0  0  0  0  0
  -11.0926  -17.7846   -7.0405 H   0  0  0  0  0  0  0  0  0  0  0  0
   -9.6763  -18.2767   -7.9768 H   0  0  0  0  0  0  0  0  0  0  0  0
  1  2  1  0
  1 20  1  0
  1 21  1  0
  1 22  1  0
  2  3  1  0
  2 19  1  0
  2 23  1  1
  3  4  1  0
  3 24  1  0
  3 25  1  0
  4  5  1  0
  4 17  1  0
  5  6  1  0
  5 26  1  0
  5 27  1  0
  6  7  2  0
  6  8  1  0
  8  9  1  0
  8 16  1  0
  9 28  1  0
  9 29  1  0
  9 10  1  0
 10 11  1  0
 10 30  1  0
 10 31  1  0
 11 12  1  0
 11 16  2  0
 12 13  2  0
 12 32  1  0
 13 14  1  0
 13 33  1  0
 14 15  2  0
 15 16  1  0
 15 34  1  0
 17 18  1  0
 17 35  1  0
 17 36  1  0
 18 19  1  0
 18 37  1  0
 18 38  1  0
 19 39  1  0
 19 40  1  0
 41 42  1  0
 41 43  1  0
 41 44  1  0
 42 45  1  0
 42 46  1  0
 42 47  1  0
 43 48  1  0
 43 49  1  0
 43 50  1  0
 14 41  1  0
M  CHG  1  19   1
M  END
>  <attachment_point>  (1) 
33

>  <energies>  (1) 
[-577730.7326603712, -577731.6149556943, -577729.1573081367, -577729.1574463553, -577729.0684302533, -577732.1240914441, -577731.7645395246, -577728.7613811248, -577731.6452289132, -577729.3206823178, -577731.8908628579, -577731.6399889166, -577721.4309488428, -577731.877859956, -577731.738253495, -577729.1543877586, -577729.3133629016, -577729.2800847241, -577729.1574325858, -577728.4712718253, -577721.5851746979, -577731.5597209994, -577731.6107980432, -577729.2934198965, -577732.0945746747, -577729.2436709804, -577729.1560657528, -577728.0421953582, -577731.3861586975, -577721.4956136907, -577729.342106856, -577731.8137699183, -577731.52063153, -577726.2220380664, -577729.1435931034, -577729.0438448744, -577729.246704694, -577731.7309632989, -577731.8554571596, -577729.1352736795, -577729.1361453321, -577728.0416384531, -577731.687382604, -577732.1125949187, -577721.3488074708, -577729.2120794618, -577731.6452994016, -577729.1411345397, -577729.285510538, -577731.7091416665, -577732.0191209432, -577729.3292015675, -577728.8638909973, -577729.2279009309, -577726.1933052297, -577729.1537138466, -577729.303895214, -577731.5282668908, -577729.2316106725, -577729.3415622996, -577731.7491996079, -577721.2922612849, -577731.6189951721, -577728.7324343283, -577729.244230532, -577729.3660989281, -577729.2870606935, -577729.3306047544, -577728.8519546195, -577729.2261672778, -577720.7901179868, -577726.2167200015, -577721.4087462565, -577731.5041881467, -577731.4662463029, -577729.198066282, -577731.4877060421, -577729.2349365393, -577731.6563582987, -577722.9994246411, -577731.6731831867, -577721.3721045166, -577729.2676418165, -577732.0384531314, -577731.4013638902, -577729.3579632045, -577731.7320828524, -577725.3046553163, -577726.2843222817, -577729.2542035191, -577732.0631227724, -577732.13954282, -577729.1899712314, -577729.1733486581, -577729.1329428777, -577731.8783608087, -577729.3355550041, -577729.2723121889, -577728.8635505184, -577731.870566886, -577721.5477698825, -577732.0701987435, -577729.0468716624, -577727.6778256156, -577729.3730112542, -577729.1576014449, -577731.4723436873, -577731.7357792996, -577731.8097909614, -577731.4509508732, -577726.0863790832, -577728.8841280008, -577731.8026686623, -577728.8987046729, -577730.2092738826, -577728.9968812277, -577731.6637170786, -577721.2497229577]

>  <index>  (1) 
6

>  <Smiles>  (1) 
[H]c1c([H])c(C([H])(C([H])([H])[H])C([H])([H])[H])c([H])c2c1C([H])([H])C([H])([H])N2C(=O)C([H])([H])N1C([H])([H])C([H])([H])[N+]([H])([H])[C@]([H])(C([H])([H])[H])C1([H])[H]

>  <score>  (1) 
<NA>

>  <h>  (1) 
33

>  <Training>  (1) 
False

>  <Success>  (1) 
nan

>  <enamine_searched>  (1) 
False

>  <enamine_id>  (1) 
nan

$$$$
