ligandXIAP.pdb
     RDKit          3D

 41 43  0  0  1  0  0  0  0  0999 V2000
  -15.3556  -21.6008   -0.1829 C   0  0  0  0  0  0  0  0  0  0  0  0
  -15.8761  -20.2849   -0.7361 C   0  0  2  0  0  0  0  0  0  0  0  0
  -15.7731  -20.1884   -2.2625 C   0  0  0  0  0  0  0  0  0  0  0  0
  -16.2036  -18.8629   -2.7083 N   0  0  0  0  0  0  0  0  0  0  0  0
  -16.4368  -18.7745   -4.1336 C   0  0  0  0  0  0  0  0  0  0  0  0
  -15.2730  -19.1492   -5.0770 C   0  0  0  0  0  0  0  0  0  0  0  0
  -14.1930  -19.5573   -4.6773 O   0  0  0  0  0  0  0  0  0  0  0  0
  -15.5259  -19.0032   -6.4244 N   0  0  0  0  0  0  0  0  0  0  0  0
  -16.8466  -18.7970   -7.0564 C   0  0  0  0  0  0  0  0  0  0  0  0
  -16.6331  -19.1886   -8.5350 C   0  0  0  0  0  0  0  0  0  0  0  0
  -15.1367  -19.3208   -8.6654 C   0  0  0  0  0  0  0  0  0  0  0  0
  -14.3474  -19.5343   -9.7791 C   0  0  0  0  0  0  0  0  0  0  0  0
  -12.9621  -19.5767   -9.6483 C   0  0  0  0  0  0  0  0  0  0  0  0
  -12.3892  -19.3909   -8.3927 C   0  0  0  0  0  0  0  0  0  0  0  0
  -13.1538  -19.1899   -7.2519 C   0  0  0  0  0  0  0  0  0  0  0  0
  -14.5383  -19.1895   -7.4128 C   0  0  0  0  0  0  0  0  0  0  0  0
  -15.2778  -17.8598   -2.1845 C   0  0  0  0  0  0  0  0  0  0  0  0
  -15.3479  -17.8368   -0.6510 C   0  0  0  0  0  0  0  0  0  0  0  0
  -15.0713  -19.1722   -0.0946 N   0  0  0  0  0  0  0  0  0  0  0  0
  -15.9829  -22.4484   -0.4713 H   0  0  0  0  0  0  0  0  0  0  0  0
  -15.3231  -21.5550    0.9120 H   0  0  0  0  0  0  0  0  0  0  0  0
  -14.3370  -21.7894   -0.5464 H   0  0  0  0  0  0  0  0  0  0  0  0
  -16.9202  -20.1318   -0.4542 H   0  0  0  0  0  0  0  0  0  0  0  0
  -16.4100  -20.9480   -2.7286 H   0  0  0  0  0  0  0  0  0  0  0  0
  -14.7330  -20.3848   -2.5719 H   0  0  0  0  0  0  0  0  0  0  0  0
  -16.7506  -17.7483   -4.3747 H   0  0  0  0  0  0  0  0  0  0  0  0
  -17.2999  -19.4108   -4.3805 H   0  0  0  0  0  0  0  0  0  0  0  0
  -17.1508  -17.7463   -6.9659 H   0  0  0  0  0  0  0  0  0  0  0  0
  -17.6107  -19.4212   -6.5809 H   0  0  0  0  0  0  0  0  0  0  0  0
  -17.0393  -18.4306   -9.2088 H   0  0  0  0  0  0  0  0  0  0  0  0
  -17.1365  -20.1326   -8.7626 H   0  0  0  0  0  0  0  0  0  0  0  0
  -14.7976  -19.6574  -10.7600 H   0  0  0  0  0  0  0  0  0  0  0  0
  -12.3264  -19.7365  -10.5109 H   0  0  0  0  0  0  0  0  0  0  0  0
  -12.6886  -19.0357   -6.2873 H   0  0  0  0  0  0  0  0  0  0  0  0
  -15.5536  -16.8755   -2.5745 H   0  0  0  0  0  0  0  0  0  0  0  0
  -14.2428  -18.0653   -2.5119 H   0  0  0  0  0  0  0  0  0  0  0  0
  -16.3510  -17.5224   -0.3536 H   0  0  0  0  0  0  0  0  0  0  0  0
  -14.6254  -17.1216   -0.2571 H   0  0  0  0  0  0  0  0  0  0  0  0
  -15.2667  -19.2094    0.9263 H   0  0  0  0  0  0  0  0  0  0  0  0
  -14.0525  -19.3859   -0.2571 H   0  0  0  0  0  0  0  0  0  0  0  0
  -10.6524  -19.4109   -8.2475 Cl  0  0  0  0  0  0  0  0  0  0  0  0
  1  2  1  0
  1 20  1  0
  1 21  1  0
  1 22  1  0
  2  3  1  0
  2 19  1  0
  2 23  1  6
  3  4  1  0
  3 24  1  0
  3 25  1  0
  4  5  1  0
  4 17  1  0
  5  6  1  0
  5 26  1  0
  5 27  1  0
  6  7  2  0
  6  8  1  0
  8  9  1  0
  8 16  1  0
  9 28  1  0
  9 29  1  0
  9 10  1  0
 10 11  1  0
 10 30  1  0
 10 31  1  0
 11 12  1  0
 11 16  2  0
 12 13  2  0
 12 32  1  0
 13 14  1  0
 13 33  1  0
 14 15  2  0
 15 16  1  0
 15 34  1  0
 17 18  1  0
 17 35  1  0
 17 36  1  0
 18 19  1  0
 18 37  1  0
 18 38  1  0
 19 39  1  0
 19 40  1  0
 14 41  1  0
M  CHG  1  19   1
M  END
>  <attachment_point>  (1) 
33

>  <energies>  (1) 
[-792131.6800318512, -792128.2065767644, -792128.2069126137, -792128.2062191044, -792128.2064614228, -792128.2068341548, -792128.2062965235, -792128.2065663292, -792128.2067469702, -792128.2065352483, -792128.2066846055, -792128.2063765781, -792128.2066522174, -792128.2065634872, -792128.2070777481, -792128.2063862866, -792128.206844045, -792128.2065466628, -792128.206678786, -792128.2072832375, -792128.2071444471, -792128.2066577626, -792128.206722332, -792128.2059894792, -792128.2062324599, -792128.2069731017, -792128.2062896998, -792128.2070193652, -792128.2070988676, -792128.2066869845, -792128.2065452739, -792128.2069861972, -792128.2072418318, -792128.2068897528, -792128.206519642, -792128.2064956734, -792128.2071108591, -792128.2065809063, -792128.2066596609, -792128.2063765852, -792128.206638976, -792128.2066419213, -792128.2063805135, -792125.1869321752, -792128.206635208, -792128.2066130129, -792128.2067355522, -792128.2062198203, -792128.206808384, -792128.20630058, -792128.2065809526, -792128.2068541418, -792128.2069048107, -792128.2067634455, -792124.7617393911, -792124.7730654599, -792128.2067932549, -792128.2067903844, -792128.2069628696, -792128.2066690454, -792128.2069243061, -792124.7855526677, -792128.2065345681, -792124.7777295965, -792128.2073525328, -792128.2066319741, -792128.2062642531, -792128.2069610674, -792128.2064723494, -792128.2066266604, -792128.206827908, -792128.2065601714, -792128.206591174, -792128.2064426646, -792128.2063700642, -792128.206430114, -792128.2067881763, -792128.2066385486, -792128.2065910886, -792128.2066205988, -792128.2066877289, -792128.2066689812, -792128.2063868137, -792128.2064374079, -792128.2071312449, -792128.2068518696, -792128.2060267142, -792128.2065277693, -792128.2068955972, -792128.2064701057, -792128.2067780831, -792128.2067218904, -792128.2058418707, -792128.2070302347, -792128.206410476, -792128.2063812828, -792128.206601285, -792124.8313306991, -792128.2064548092, -792128.2067584381, -792128.2069528939, -792124.889001929, -792124.7683277245, -792128.2058829558, -792128.2069319597, -792128.2066871946, -792128.206825479, -792128.2069245127, -792128.2064864385, -792128.2064796325, -792128.2065395969, -792128.2069752528, -792128.2063837509, -792128.2066197263, -792128.2068245389, -792128.2064632855, -792128.2066041271, -792128.2067683283, -792128.2063857452, -792128.2068109697, -792128.2064826776, -792128.2064759607, -792128.2065976416, -792128.2065135733, -792128.20704697, -792128.207294862, -792128.2065750121, -792128.2067247966, -792128.2066185438, -792128.206806126, -792128.2066008149, -792128.2062191863, -792128.2067856762, -792128.2059564287, -792128.2066290039, -792128.206391173, -792128.2067003364, -792128.2062675902, -792128.2065440773, -792128.2068188548, -792128.2065185594, -792128.2063233021, -792128.2069424945, -792128.2066722721, -792128.2072225822, -792128.2065300664, -792128.2065269644, -792128.2061610526, -792128.2066784797, -792128.20662858, -792128.2062954942, -792128.2065966231, -792128.206568548, -792128.2071232992, -792128.2068044202, -792128.2069771404, -792125.0689791465, -792128.207153415, -792124.7873478339, -792128.2062060909, -792128.2067109246, -792128.2066731589, -792128.2063837936, -792128.2064108428, -792128.2067307015, -792128.205965247, -792128.2065400314, -792128.2066061713, -792128.206344329, -792128.2067239204, -792128.2065149373, -792128.2064791766, -792128.2064501507, -792128.2064779088, -792128.2063802712, -792128.2070380735, -792128.2068956542, -792124.8094743169, -792124.7161595105, -792128.2064413967, -792128.2069296341, -792128.2062044597, -792128.2065504487, -792128.206556756, -792128.2067355663, -792125.2924752468, -792128.2063903075, -792128.206527374, -792128.206716655, -792128.2067077977, -792128.2071239866, -792128.2067607212, -792128.2065274345, -792128.2066251112, -792128.2067682178, -792128.2063930569, -792128.2059621377, -792128.2067155937, -792128.2060420285, -792128.2069476087, -792128.20663602]

>  <index>  (1) 
2

>  <Smiles>  (1) 
[H]c1c([H])c2c(c([H])c1Cl)N(C(=O)C([H])([H])N1C([H])([H])C([H])([H])[N+]([H])([H])[C@]([H])(C([H])([H])[H])C1([H])[H])C([H])([H])C2([H])[H]

>  <score>  (1) 
<NA>

>  <h>  (1) 
33

>  <Training>  (1) 
False

>  <Success>  (1) 
nan

>  <enamine_searched>  (1) 
False

>  <enamine_id>  (1) 
nan

$$$$
