in.pdb
     RDKit          3D

 49 52  0  0  1  0  0  0  0  0999 V2000
    8.1757    1.1602   16.0141 C   0  0  0  0  0  0  0  0  0  0  0  0
    8.8446    0.2256   15.2203 C   0  0  0  0  0  0  0  0  0  0  0  0
   10.0946   -0.2401   15.5955 C   0  0  0  0  0  0  0  0  0  0  0  0
   10.6793    0.2283   16.7673 C   0  0  0  0  0  0  0  0  0  0  0  0
   10.0106    1.1473   17.5657 C   0  0  0  0  0  0  0  0  0  0  0  0
    8.7523    1.6322   17.2102 C   0  0  0  0  0  0  0  0  0  0  0  0
    8.0702    2.6309   18.0919 C   0  0  0  0  0  0  0  0  0  0  0  0
    8.1511    4.0021   17.8394 C   0  0  0  0  0  0  0  0  0  0  0  0
    7.5501    4.8948   18.7119 C   0  0  0  0  0  0  0  0  0  0  0  0
    7.3520    2.2431   19.2187 C   0  0  0  0  0  0  0  0  0  0  0  0
    6.7119    3.0844   20.0385 N   0  0  0  0  0  0  0  0  0  0  0  0
    6.8393    4.3881   19.8043 C   0  0  0  0  0  0  0  0  0  0  0  0
    6.1793    5.2741   20.6898 N   0  0  0  0  0  0  0  0  0  0  0  0
    6.7824    6.4071   21.2062 C   0  0  0  0  0  0  0  0  0  0  0  0
    7.9360    6.7391   21.0386 O   0  0  0  0  0  0  0  0  0  0  0  0
    4.8009    5.1118   21.1570 C   0  0  0  0  0  0  0  0  0  0  0  0
    4.4096    6.5461   21.5400 C   0  0  0  0  0  0  0  0  0  0  0  0
    5.7267    7.1715   22.0133 C   0  0  2  0  0  0  0  0  0  0  0  0
    5.8100    8.5980   21.7482 N   0  0  0  0  0  0  0  0  0  0  0  0
    6.3402    9.7136   22.8642 S   0  0  0  0  0  0  0  0  0  0  0  0
    5.4237    9.6898   23.9901 O   0  0  0  0  0  0  0  0  0  0  0  0
    6.5530   10.9259   22.0958 O   0  0  0  0  0  0  0  0  0  0  0  0
    7.9192    9.1329   23.4297 C   0  0  0  0  0  0  0  0  0  0  0  0
    8.0571    8.6907   24.6891 C   0  0  0  0  0  0  0  0  0  0  0  0
    9.2979    8.2245   25.2966 C   0  0  0  0  0  0  0  0  0  0  0  0
   10.8463    8.4200   24.5313 S   0  0  0  0  0  0  0  0  0  0  0  0
    9.4326    7.5796   26.5036 C   0  0  0  0  0  0  0  0  0  0  0  0
   10.7778    7.2364   26.8247 C   0  0  0  0  0  0  0  0  0  0  0  0
   11.6384    7.6360   25.8477 C   0  0  0  0  0  0  0  0  0  0  0  0
   13.3431    7.4242   25.8244 Cl  0  0  0  0  0  0  0  0  0  0  0  0
    8.3752   -0.1278   14.3073 H   0  0  0  0  0  0  0  0  0  0  0  0
   10.6137   -0.9655   14.9760 H   0  0  0  0  0  0  0  0  0  0  0  0
   11.6647   -0.1237   17.0553 H   0  0  0  0  0  0  0  0  0  0  0  0
   10.4719    1.5174   18.4763 H   0  0  0  0  0  0  0  0  0  0  0  0
    8.6947    4.3598   16.9658 H   0  0  0  0  0  0  0  0  0  0  0  0
    7.6065    5.9630   18.5418 H   0  0  0  0  0  0  0  0  0  0  0  0
    7.2620    1.1877   19.4653 H   0  0  0  0  0  0  0  0  0  0  0  0
    4.1718    4.6883   20.3660 H   0  0  0  0  0  0  0  0  0  0  0  0
    4.7623    4.4302   22.0184 H   0  0  0  0  0  0  0  0  0  0  0  0
    3.6290    6.5884   22.3018 H   0  0  0  0  0  0  0  0  0  0  0  0
    4.0445    7.1019   20.6700 H   0  0  0  0  0  0  0  0  0  0  0  0
    5.8781    6.9736   23.0776 H   0  0  0  0  0  0  0  0  0  0  0  0
    6.2036    8.8152   20.8377 H   0  0  0  0  0  0  0  0  0  0  0  0
    8.7135    9.1938   22.6852 H   0  0  0  0  0  0  0  0  0  0  0  0
    7.1730    8.6667   25.3238 H   0  0  0  0  0  0  0  0  0  0  0  0
    8.5832    7.3411   27.1377 H   0  0  0  0  0  0  0  0  0  0  0  0
   11.0798    6.7170   27.7313 H   0  0  0  0  0  0  0  0  0  0  0  0
    6.8743    1.6110   15.5819 C   0  0  0  0  0  0  0  0  0  0  0  0
    5.8266    1.9606   15.2330 N   0  0  0  0  0  0  0  0  0  0  0  0
  1  6  2  0
  2  3  2  0
  2  1  1  0
  2 31  1  0
  3  4  1  0
  3 32  1  0
  4  5  2  0
  4 33  1  0
  5 34  1  0
  6  5  1  0
  6  7  1  0
  7 10  1  0
  8  7  2  0
  8  9  1  0
  8 35  1  0
  9 12  2  0
  9 36  1  0
 10 11  2  0
 10 37  1  0
 12 11  1  0
 12 13  1  0
 13 16  1  0
 13 14  1  0
 14 18  1  0
 15 14  2  0
 16 17  1  0
 16 38  1  0
 16 39  1  0
 17 18  1  0
 17 40  1  0
 17 41  1  0
 18 42  1  1
 19 18  1  0
 19 20  1  0
 19 43  1  0
 20 23  1  0
 20 22  2  0
 21 20  2  0
 23 24  2  0
 23 44  1  0
 24 25  1  0
 24 45  1  0
 25 27  2  0
 26 25  1  0
 26 29  1  0
 27 28  1  0
 27 46  1  0
 28 47  1  0
 29 28  2  0
 30 29  1  0
 48 49  3  0
  1 48  1  0
M  END
>  <attachment_point>  (1) 
30

>  <energies>  (1) 
[-1554759.6801005406, -1554763.702563043]

>  <index>  (1) 
0

>  <Smiles>  (1) 
[H]/C(=C(/[H])S(=O)(=O)N([H])[C@]1([H])C(=O)N(c2nc([H])c(-c3c([H])c([H])c([H])c([H])c3C#N)c([H])c2[H])C([H])([H])C1([H])[H])c1sc(Cl)c([H])c1[H]

>  <score>  (1) 
<NA>

>  <h>  (1) 
30

>  <Training>  (1) 
False

>  <Success>  (1) 
nan

>  <enamine_searched>  (1) 
False

>  <enamine_id>  (1) 
nan

$$$$
in.pdb
     RDKit          3D

 51 54  0  0  1  0  0  0  0  0999 V2000
    8.2598    1.1657   16.0615 C   0  0  0  0  0  0  0  0  0  0  0  0
    9.0067    0.2737   15.2966 C   0  0  0  0  0  0  0  0  0  0  0  0
   10.2558   -0.1590   15.7227 C   0  0  0  0  0  0  0  0  0  0  0  0
   10.7655    0.3001   16.9297 C   0  0  0  0  0  0  0  0  0  0  0  0
   10.0344    1.2073   17.6865 C   0  0  0  0  0  0  0  0  0  0  0  0
    8.7896    1.6707   17.2546 C   0  0  0  0  0  0  0  0  0  0  0  0
    8.1328    2.6949   18.1154 C   0  0  0  0  0  0  0  0  0  0  0  0
    8.4713    4.0484   18.0195 C   0  0  0  0  0  0  0  0  0  0  0  0
    7.9447    4.9612   18.9182 C   0  0  0  0  0  0  0  0  0  0  0  0
    7.2591    2.3293   19.1273 C   0  0  0  0  0  0  0  0  0  0  0  0
    6.6661    3.1976   19.9492 N   0  0  0  0  0  0  0  0  0  0  0  0
    7.0182    4.4821   19.8571 C   0  0  0  0  0  0  0  0  0  0  0  0
    6.3297    5.3552   20.7176 N   0  0  0  0  0  0  0  0  0  0  0  0
    6.8250    6.5279   21.2631 C   0  0  0  0  0  0  0  0  0  0  0  0
    7.9367    6.9867   21.1073 O   0  0  0  0  0  0  0  0  0  0  0  0
    4.9895    5.0331   21.2087 C   0  0  0  0  0  0  0  0  0  0  0  0
    4.4553    6.3943   21.6482 C   0  0  0  0  0  0  0  0  0  0  0  0
    5.7052    7.1457   22.1101 C   0  0  2  0  0  0  0  0  0  0  0  0
    5.5959    8.5840   21.9200 N   0  0  0  0  0  0  0  0  0  0  0  0
    6.2037    9.6553   23.0431 S   0  0  0  0  0  0  0  0  0  0  0  0
    6.3717   10.8996   22.3199 O   0  0  0  0  0  0  0  0  0  0  0  0
    5.3726    9.6044   24.2333 O   0  0  0  0  0  0  0  0  0  0  0  0
    7.7947    8.9938   23.4408 C   0  0  0  0  0  0  0  0  0  0  0  0
    8.0256    8.5765   24.6935 C   0  0  0  0  0  0  0  0  0  0  0  0
    9.2782    8.1085   25.2518 C   0  0  0  0  0  0  0  0  0  0  0  0
   10.7811    8.1473   24.3925 S   0  0  0  0  0  0  0  0  0  0  0  0
    9.4490    7.6106   26.5197 C   0  0  0  0  0  0  0  0  0  0  0  0
   10.7957    7.2779   26.8223 C   0  0  0  0  0  0  0  0  0  0  0  0
   11.6176    7.5220   25.7647 C   0  0  0  0  0  0  0  0  0  0  0  0
   13.3165    7.2700   25.7089 Cl  0  0  0  0  0  0  0  0  0  0  0  0
    8.5903   -0.0751   14.3594 H   0  0  0  0  0  0  0  0  0  0  0  0
   10.8245   -0.8511   15.1089 H   0  0  0  0  0  0  0  0  0  0  0  0
   11.7363   -0.0412   17.2795 H   0  0  0  0  0  0  0  0  0  0  0  0
   10.4133    1.5765   18.6353 H   0  0  0  0  0  0  0  0  0  0  0  0
    9.1432    4.3792   17.2274 H   0  0  0  0  0  0  0  0  0  0  0  0
    8.2319    6.0078   18.8973 H   0  0  0  0  0  0  0  0  0  0  0  0
    7.0001    1.2796   19.2628 H   0  0  0  0  0  0  0  0  0  0  0  0
    5.0461    4.3088   22.0334 H   0  0  0  0  0  0  0  0  0  0  0  0
    4.3986    4.5827   20.4060 H   0  0  0  0  0  0  0  0  0  0  0  0
    3.6999    6.3228   22.4338 H   0  0  0  0  0  0  0  0  0  0  0  0
    4.0152    6.9126   20.7887 H   0  0  0  0  0  0  0  0  0  0  0  0
    5.9119    6.9211   23.1625 H   0  0  0  0  0  0  0  0  0  0  0  0
    5.8712    8.8949   20.9891 H   0  0  0  0  0  0  0  0  0  0  0  0
    8.4758    8.9526   22.5920 H   0  0  0  0  0  0  0  0  0  0  0  0
    7.2060    8.6019   25.4072 H   0  0  0  0  0  0  0  0  0  0  0  0
    8.6210    7.4793   27.2069 H   0  0  0  0  0  0  0  0  0  0  0  0
   11.1397    6.8871   27.7736 H   0  0  0  0  0  0  0  0  0  0  0  0
    6.8707    1.4967   15.5573 C   0  0  0  0  0  0  0  0  0  0  0  0
    6.3649    2.6388   16.0491 F   0  0  0  0  0  0  0  0  0  0  0  0
    5.9933    0.5192   15.8625 F   0  0  0  0  0  0  0  0  0  0  0  0
    6.8574    1.6100   14.2155 F   0  0  0  0  0  0  0  0  0  0  0  0
  1  6  2  0
  2  3  2  0
  2  1  1  0
  2 31  1  0
  3  4  1  0
  3 32  1  0
  4  5  2  0
  4 33  1  0
  5 34  1  0
  6  5  1  0
  6  7  1  0
  7 10  1  0
  8  7  2  0
  8  9  1  0
  8 35  1  0
  9 12  2  0
  9 36  1  0
 10 11  2  0
 10 37  1  0
 12 11  1  0
 12 13  1  0
 13 16  1  0
 13 14  1  0
 14 18  1  0
 15 14  2  0
 16 17  1  0
 16 38  1  0
 16 39  1  0
 17 18  1  0
 17 40  1  0
 17 41  1  0
 18 42  1  1
 19 18  1  0
 19 20  1  0
 19 43  1  0
 20 23  1  0
 20 22  2  0
 21 20  2  0
 23 24  2  0
 23 44  1  0
 24 25  1  0
 24 45  1  0
 25 27  2  0
 26 25  1  0
 26 29  1  0
 27 28  1  0
 27 46  1  0
 28 47  1  0
 29 28  2  0
 30 29  1  0
 48 49  1  0
 48 50  1  0
 48 51  1  0
  1 48  1  0
M  END
>  <attachment_point>  (2) 
30

>  <energies>  (2) 
[-1708357.3045077552, -1708354.1957570266, -1708349.3910759904, -1708354.1954324206, -1708354.1958868953, -1708354.1957801192, -1708354.1955237365]

>  <index>  (2) 
1

>  <Smiles>  (2) 
[H]/C(=C(/[H])S(=O)(=O)N([H])[C@]1([H])C(=O)N(c2nc([H])c(-c3c([H])c([H])c([H])c([H])c3C(F)(F)F)c([H])c2[H])C([H])([H])C1([H])[H])c1sc(Cl)c([H])c1[H]

>  <score>  (2) 
<NA>

>  <h>  (2) 
30

>  <Training>  (2) 
False

>  <Success>  (2) 
nan

>  <enamine_searched>  (2) 
False

>  <enamine_id>  (2) 
nan

$$$$
in.pdb
     RDKit          3D

 60 63  0  0  1  0  0  0  0  0999 V2000
    8.4584    1.2503   16.0641 C   0  0  0  0  0  0  0  0  0  0  0  0
    9.2353    0.3119   15.3725 C   0  0  0  0  0  0  0  0  0  0  0  0
   10.4445   -0.1653   15.8639 C   0  0  0  0  0  0  0  0  0  0  0  0
   10.9231    0.2815   17.0841 C   0  0  0  0  0  0  0  0  0  0  0  0
   10.1800    1.2189   17.7860 C   0  0  0  0  0  0  0  0  0  0  0  0
    8.9684    1.7137   17.2997 C   0  0  0  0  0  0  0  0  0  0  0  0
    8.3420    2.7172   18.2058 C   0  0  0  0  0  0  0  0  0  0  0  0
    8.7380    4.0580   18.2080 C   0  0  0  0  0  0  0  0  0  0  0  0
    8.1279    4.9530   19.0683 C   0  0  0  0  0  0  0  0  0  0  0  0
    7.4532    2.3249   19.1973 C   0  0  0  0  0  0  0  0  0  0  0  0
    6.8069    3.1679   20.0025 N   0  0  0  0  0  0  0  0  0  0  0  0
    7.1467    4.4569   19.9412 C   0  0  0  0  0  0  0  0  0  0  0  0
    6.4100    5.3209   20.7732 N   0  0  0  0  0  0  0  0  0  0  0  0
    6.8698    6.4975   21.3452 C   0  0  0  0  0  0  0  0  0  0  0  0
    7.9927    6.9477   21.2605 O   0  0  0  0  0  0  0  0  0  0  0  0
    5.0465    4.9942   21.1898 C   0  0  0  0  0  0  0  0  0  0  0  0
    4.4861    6.3534   21.6086 C   0  0  0  0  0  0  0  0  0  0  0  0
    5.7023    7.1196   22.1324 C   0  0  2  0  0  0  0  0  0  0  0  0
    5.5742    8.5609   21.9452 N   0  0  0  0  0  0  0  0  0  0  0  0
    6.1799    9.6632   23.0442 S   0  0  0  0  0  0  0  0  0  0  0  0
    6.3452   10.8808   22.2685 O   0  0  0  0  0  0  0  0  0  0  0  0
    5.3562    9.6524   24.2400 O   0  0  0  0  0  0  0  0  0  0  0  0
    7.7798    9.0215   23.4576 C   0  0  0  0  0  0  0  0  0  0  0  0
    8.0261    8.5951   24.7056 C   0  0  0  0  0  0  0  0  0  0  0  0
    9.2937    8.1396   25.2513 C   0  0  0  0  0  0  0  0  0  0  0  0
   10.8078    8.1934   24.4080 S   0  0  0  0  0  0  0  0  0  0  0  0
    9.4561    7.6246   26.5116 C   0  0  0  0  0  0  0  0  0  0  0  0
   10.7961    7.2730   26.8199 C   0  0  0  0  0  0  0  0  0  0  0  0
   11.6287    7.5293   25.7740 C   0  0  0  0  0  0  0  0  0  0  0  0
   13.3249    7.2574   25.7279 Cl  0  0  0  0  0  0  0  0  0  0  0  0
    8.8957   -0.0741   14.4174 H   0  0  0  0  0  0  0  0  0  0  0  0
   11.0143   -0.8819   15.2761 H   0  0  0  0  0  0  0  0  0  0  0  0
   11.8638   -0.0909   17.4794 H   0  0  0  0  0  0  0  0  0  0  0  0
   10.5363    1.5802   18.7457 H   0  0  0  0  0  0  0  0  0  0  0  0
    9.4881    4.4003   17.4947 H   0  0  0  0  0  0  0  0  0  0  0  0
    8.3891    6.0036   19.0665 H   0  0  0  0  0  0  0  0  0  0  0  0
    7.1936    1.2708   19.2960 H   0  0  0  0  0  0  0  0  0  0  0  0
    5.0601    4.2610   22.0080 H   0  0  0  0  0  0  0  0  0  0  0  0
    4.4925    4.5518   20.3569 H   0  0  0  0  0  0  0  0  0  0  0  0
    3.6919    6.2788   22.3540 H   0  0  0  0  0  0  0  0  0  0  0  0
    4.0888    6.8756   20.7305 H   0  0  0  0  0  0  0  0  0  0  0  0
    5.8654    6.9052   23.1951 H   0  0  0  0  0  0  0  0  0  0  0  0
    5.7924    8.8887   21.0080 H   0  0  0  0  0  0  0  0  0  0  0  0
    8.4657    8.9979   22.6124 H   0  0  0  0  0  0  0  0  0  0  0  0
    7.2141    8.5837   25.4303 H   0  0  0  0  0  0  0  0  0  0  0  0
    8.6187    7.4988   27.1876 H   0  0  0  0  0  0  0  0  0  0  0  0
   11.1198    6.8546   27.7664 H   0  0  0  0  0  0  0  0  0  0  0  0
    7.1071    1.7325   15.4836 C   0  0  0  0  0  0  0  0  0  0  0  0
    7.0579    3.2607   15.3236 C   0  0  0  0  0  0  0  0  0  0  0  0
    5.9352    1.3086   16.3860 C   0  0  0  0  0  0  0  0  0  0  0  0
    6.8452    1.1458   14.0829 C   0  0  0  0  0  0  0  0  0  0  0  0
    6.0616    3.5370   14.9578 H   0  0  0  0  0  0  0  0  0  0  0  0
    7.7983    3.6050   14.5892 H   0  0  0  0  0  0  0  0  0  0  0  0
    7.2083    3.7776   16.2730 H   0  0  0  0  0  0  0  0  0  0  0  0
    5.9290    1.8141   17.3529 H   0  0  0  0  0  0  0  0  0  0  0  0
    5.9454    0.2303   16.5540 H   0  0  0  0  0  0  0  0  0  0  0  0
    4.9881    1.5615   15.8975 H   0  0  0  0  0  0  0  0  0  0  0  0
    6.7702    0.0508   14.0875 H   0  0  0  0  0  0  0  0  0  0  0  0
    7.6282    1.4458   13.3740 H   0  0  0  0  0  0  0  0  0  0  0  0
    5.8940    1.5329   13.7033 H   0  0  0  0  0  0  0  0  0  0  0  0
  1  6  2  0
  2  3  2  0
  2  1  1  0
  2 31  1  0
  3  4  1  0
  3 32  1  0
  4  5  2  0
  4 33  1  0
  5 34  1  0
  6  5  1  0
  6  7  1  0
  7 10  1  0
  8  7  2  0
  8  9  1  0
  8 35  1  0
  9 12  2  0
  9 36  1  0
 10 11  2  0
 10 37  1  0
 12 11  1  0
 12 13  1  0
 13 16  1  0
 13 14  1  0
 14 18  1  0
 15 14  2  0
 16 17  1  0
 16 38  1  0
 16 39  1  0
 17 18  1  0
 17 40  1  0
 17 41  1  0
 18 42  1  1
 19 18  1  0
 19 20  1  0
 19 43  1  0
 20 23  1  0
 20 22  2  0
 21 20  2  0
 23 24  2  0
 23 44  1  0
 24 25  1  0
 24 45  1  0
 25 27  2  0
 26 25  1  0
 26 29  1  0
 27 28  1  0
 27 46  1  0
 28 47  1  0
 29 28  2  0
 30 29  1  0
 48 49  1  0
 48 50  1  0
 48 51  1  0
 49 52  1  0
 49 53  1  0
 49 54  1  0
 50 55  1  0
 50 56  1  0
 50 57  1  0
 51 58  1  0
 51 59  1  0
 51 60  1  0
  1 48  1  0
M  END
>  <attachment_point>  (3) 
30

>  <energies>  (3) 
[-1595553.157447203, -1595549.4396805365, -1595547.613735786, -1595547.6145153828, -1595547.6149855566, -1595547.6139934256, -1595545.583815899]

>  <index>  (3) 
2

>  <Smiles>  (3) 
[H]/C(=C(/[H])S(=O)(=O)N([H])[C@]1([H])C(=O)N(c2nc([H])c(-c3c([H])c([H])c([H])c([H])c3C(C([H])([H])[H])(C([H])([H])[H])C([H])([H])[H])c([H])c2[H])C([H])([H])C1([H])[H])c1sc(Cl)c([H])c1[H]

>  <score>  (3) 
<NA>

>  <h>  (3) 
30

>  <Training>  (3) 
False

>  <Success>  (3) 
nan

>  <enamine_searched>  (3) 
False

>  <enamine_id>  (3) 
nan

$$$$
in.pdb
     RDKit          3D

 54 57  0  0  1  0  0  0  0  0999 V2000
    8.4116    1.2645   16.0026 C   0  0  0  0  0  0  0  0  0  0  0  0
    9.1521    0.3753   15.2322 C   0  0  0  0  0  0  0  0  0  0  0  0
   10.3591   -0.1193   15.7088 C   0  0  0  0  0  0  0  0  0  0  0  0
   10.8066    0.2459   16.9761 C   0  0  0  0  0  0  0  0  0  0  0  0
   10.0546    1.1285   17.7429 C   0  0  0  0  0  0  0  0  0  0  0  0
    8.8728    1.6918   17.2568 C   0  0  0  0  0  0  0  0  0  0  0  0
    8.1949    2.7017   18.1092 C   0  0  0  0  0  0  0  0  0  0  0  0
    8.4113    4.0726   17.9350 C   0  0  0  0  0  0  0  0  0  0  0  0
    7.8574    4.9708   18.8304 C   0  0  0  0  0  0  0  0  0  0  0  0
    7.4269    2.3146   19.1987 C   0  0  0  0  0  0  0  0  0  0  0  0
    6.7963    3.1635   20.0127 N   0  0  0  0  0  0  0  0  0  0  0  0
    7.0276    4.4662   19.8405 C   0  0  0  0  0  0  0  0  0  0  0  0
    6.3273    5.3337   20.7012 N   0  0  0  0  0  0  0  0  0  0  0  0
    6.8239    6.5045   21.2454 C   0  0  0  0  0  0  0  0  0  0  0  0
    7.9420    6.9529   21.0916 O   0  0  0  0  0  0  0  0  0  0  0  0
    4.9916    5.0115   21.2001 C   0  0  0  0  0  0  0  0  0  0  0  0
    4.4596    6.3730   21.6431 C   0  0  0  0  0  0  0  0  0  0  0  0
    5.7077    7.1279   22.0932 C   0  0  2  0  0  0  0  0  0  0  0  0
    5.5871    8.5658   21.9045 N   0  0  0  0  0  0  0  0  0  0  0  0
    6.1923    9.6399   23.0282 S   0  0  0  0  0  0  0  0  0  0  0  0
    6.3405   10.8868   22.2972 O   0  0  0  0  0  0  0  0  0  0  0  0
    5.3650    9.5785   24.2182 O   0  0  0  0  0  0  0  0  0  0  0  0
    7.7911    8.9960   23.4403 C   0  0  0  0  0  0  0  0  0  0  0  0
    8.0300    8.5834   24.6933 C   0  0  0  0  0  0  0  0  0  0  0  0
    9.2853    8.1136   25.2495 C   0  0  0  0  0  0  0  0  0  0  0  0
   10.7898    8.1413   24.3923 S   0  0  0  0  0  0  0  0  0  0  0  0
    9.4535    7.6157   26.5186 C   0  0  0  0  0  0  0  0  0  0  0  0
   10.7987    7.2751   26.8250 C   0  0  0  0  0  0  0  0  0  0  0  0
   11.6231    7.5137   25.7673 C   0  0  0  0  0  0  0  0  0  0  0  0
   13.3223    7.2577   25.7104 Cl  0  0  0  0  0  0  0  0  0  0  0  0
    8.7495    0.0644   14.2716 H   0  0  0  0  0  0  0  0  0  0  0  0
   10.9453   -0.7978   15.0945 H   0  0  0  0  0  0  0  0  0  0  0  0
   11.7390   -0.1531   17.3694 H   0  0  0  0  0  0  0  0  0  0  0  0
   10.3668    1.4173   18.7416 H   0  0  0  0  0  0  0  0  0  0  0  0
    9.0086    4.4166   17.0896 H   0  0  0  0  0  0  0  0  0  0  0  0
    8.0542    6.0326   18.7527 H   0  0  0  0  0  0  0  0  0  0  0  0
    7.2853    1.2512   19.4038 H   0  0  0  0  0  0  0  0  0  0  0  0
    5.0544    4.2887   22.0246 H   0  0  0  0  0  0  0  0  0  0  0  0
    4.3887    4.5635   20.4051 H   0  0  0  0  0  0  0  0  0  0  0  0
    3.7085    6.3053   22.4324 H   0  0  0  0  0  0  0  0  0  0  0  0
    4.0179    6.9008   20.7916 H   0  0  0  0  0  0  0  0  0  0  0  0
    5.9209    6.9139   23.1448 H   0  0  0  0  0  0  0  0  0  0  0  0
    5.8657    8.8792   20.9811 H   0  0  0  0  0  0  0  0  0  0  0  0
    8.4859    8.9737   22.6034 H   0  0  0  0  0  0  0  0  0  0  0  0
    7.2132    8.5985   25.4102 H   0  0  0  0  0  0  0  0  0  0  0  0
    8.6236    7.4926   27.2053 H   0  0  0  0  0  0  0  0  0  0  0  0
   11.1352    6.8850   27.7808 H   0  0  0  0  0  0  0  0  0  0  0  0
    6.8227    1.7828   15.3523 S   0  0  0  0  0  6  0  0  0  0  0  0
    5.6395    1.1672   16.5651 C   0  0  0  0  0  0  0  0  0  0  0  0
    6.5921    1.0425   14.1114 O   0  0  0  0  0  0  0  0  0  0  0  0
    6.7414    3.2391   15.3591 O   0  0  0  0  0  0  0  0  0  0  0  0
    4.9053    0.5433   16.0513 H   0  0  0  0  0  0  0  0  0  0  0  0
    5.1543    2.0246   17.0338 H   0  0  0  0  0  0  0  0  0  0  0  0
    6.1421    0.5607   17.3207 H   0  0  0  0  0  0  0  0  0  0  0  0
  1  6  2  0
  2  3  2  0
  2  1  1  0
  2 31  1  0
  3  4  1  0
  3 32  1  0
  4  5  2  0
  4 33  1  0
  5 34  1  0
  6  5  1  0
  6  7  1  0
  7 10  1  0
  8  7  2  0
  8  9  1  0
  8 35  1  0
  9 12  2  0
  9 36  1  0
 10 11  2  0
 10 37  1  0
 12 11  1  0
 12 13  1  0
 13 16  1  0
 13 14  1  0
 14 18  1  0
 15 14  2  0
 16 17  1  0
 16 38  1  0
 16 39  1  0
 17 18  1  0
 17 40  1  0
 17 41  1  0
 18 42  1  1
 19 18  1  0
 19 20  1  0
 19 43  1  0
 20 23  1  0
 20 22  2  0
 21 20  2  0
 23 24  2  0
 23 44  1  0
 24 25  1  0
 24 45  1  0
 25 27  2  0
 26 25  1  0
 26 29  1  0
 27 28  1  0
 27 46  1  0
 28 47  1  0
 29 28  2  0
 30 29  1  0
 48 49  1  0
 48 50  2  0
 48 51  2  0
 49 52  1  0
 49 53  1  0
 49 54  1  0
  1 48  1  0
M  END
>  <attachment_point>  (4) 
30

>  <energies>  (4) 
[-1865769.478779258, -1865766.4744680296, -1865768.2914963656, -1865766.47360393, -1865764.574785325, -1865764.5670675251, -1865768.2845786733]

>  <index>  (4) 
3

>  <Smiles>  (4) 
[H]/C(=C(/[H])S(=O)(=O)N([H])[C@]1([H])C(=O)N(c2nc([H])c(-c3c([H])c([H])c([H])c([H])c3S(=O)(=O)C([H])([H])[H])c([H])c2[H])C([H])([H])C1([H])[H])c1sc(Cl)c([H])c1[H]

>  <score>  (4) 
<NA>

>  <h>  (4) 
30

>  <Training>  (4) 
False

>  <Success>  (4) 
nan

>  <enamine_searched>  (4) 
False

>  <enamine_id>  (4) 
nan

$$$$
in.pdb
     RDKit          3D

 53 56  0  0  1  0  0  0  0  0999 V2000
    8.3480    1.1742   16.0713 C   0  0  0  0  0  0  0  0  0  0  0  0
    9.0554    0.2612   15.2934 C   0  0  0  0  0  0  0  0  0  0  0  0
   10.2881   -0.2030   15.7291 C   0  0  0  0  0  0  0  0  0  0  0  0
   10.7961    0.2075   16.9580 C   0  0  0  0  0  0  0  0  0  0  0  0
   10.0726    1.1056   17.7339 C   0  0  0  0  0  0  0  0  0  0  0  0
    8.8586    1.6335   17.2958 C   0  0  0  0  0  0  0  0  0  0  0  0
    8.1947    2.6481   18.1580 C   0  0  0  0  0  0  0  0  0  0  0  0
    8.3285    4.0180   17.9109 C   0  0  0  0  0  0  0  0  0  0  0  0
    7.7829    4.9267   18.8002 C   0  0  0  0  0  0  0  0  0  0  0  0
    7.5164    2.2733   19.3111 C   0  0  0  0  0  0  0  0  0  0  0  0
    6.8841    3.1284   20.1190 N   0  0  0  0  0  0  0  0  0  0  0  0
    7.0377    4.4322   19.8773 C   0  0  0  0  0  0  0  0  0  0  0  0
    6.3347    5.3145   20.7256 N   0  0  0  0  0  0  0  0  0  0  0  0
    6.8320    6.4991   21.2427 C   0  0  0  0  0  0  0  0  0  0  0  0
    7.9489    6.9447   21.0770 O   0  0  0  0  0  0  0  0  0  0  0  0
    4.9866    5.0151   21.2045 C   0  0  0  0  0  0  0  0  0  0  0  0
    4.4647    6.3875   21.6307 C   0  0  0  0  0  0  0  0  0  0  0  0
    5.7164    7.1359   22.0868 C   0  0  2  0  0  0  0  0  0  0  0  0
    5.5955    8.5729   21.9115 N   0  0  0  0  0  0  0  0  0  0  0  0
    6.1985    9.6531   23.0249 S   0  0  0  0  0  0  0  0  0  0  0  0
    6.3487   10.8921   22.2833 O   0  0  0  0  0  0  0  0  0  0  0  0
    5.3704    9.6027   24.2164 O   0  0  0  0  0  0  0  0  0  0  0  0
    7.7993    9.0134   23.4412 C   0  0  0  0  0  0  0  0  0  0  0  0
    8.0316    8.5925   24.6945 C   0  0  0  0  0  0  0  0  0  0  0  0
    9.2872    8.1251   25.2526 C   0  0  0  0  0  0  0  0  0  0  0  0
   10.7953    8.1668   24.4016 S   0  0  0  0  0  0  0  0  0  0  0  0
    9.4516    7.6149   26.5159 C   0  0  0  0  0  0  0  0  0  0  0  0
   10.7956    7.2715   26.8244 C   0  0  0  0  0  0  0  0  0  0  0  0
   11.6240    7.5239   25.7721 C   0  0  0  0  0  0  0  0  0  0  0  0
   13.3236    7.2711   25.7188 Cl  0  0  0  0  0  0  0  0  0  0  0  0
    8.6133   -0.0885   14.3631 H   0  0  0  0  0  0  0  0  0  0  0  0
   10.8429   -0.8978   15.1092 H   0  0  0  0  0  0  0  0  0  0  0  0
   11.7529   -0.1667   17.3117 H   0  0  0  0  0  0  0  0  0  0  0  0
   10.4375    1.4244   18.7043 H   0  0  0  0  0  0  0  0  0  0  0  0
    8.8442    4.3448   17.0095 H   0  0  0  0  0  0  0  0  0  0  0  0
    7.9168    5.9904   18.6586 H   0  0  0  0  0  0  0  0  0  0  0  0
    7.4382    1.2139   19.5666 H   0  0  0  0  0  0  0  0  0  0  0  0
    5.0222    4.2938   22.0323 H   0  0  0  0  0  0  0  0  0  0  0  0
    4.3900    4.5756   20.3994 H   0  0  0  0  0  0  0  0  0  0  0  0
    3.7114    6.3316   22.4186 H   0  0  0  0  0  0  0  0  0  0  0  0
    4.0274    6.9107   20.7724 H   0  0  0  0  0  0  0  0  0  0  0  0
    5.9269    6.9229   23.1399 H   0  0  0  0  0  0  0  0  0  0  0  0
    5.8046    8.9038   20.9716 H   0  0  0  0  0  0  0  0  0  0  0  0
    8.5001    9.0007   22.6089 H   0  0  0  0  0  0  0  0  0  0  0  0
    7.2131    8.6052   25.4086 H   0  0  0  0  0  0  0  0  0  0  0  0
    8.6195    7.4812   27.1994 H   0  0  0  0  0  0  0  0  0  0  0  0
   11.1295    6.8699   27.7764 H   0  0  0  0  0  0  0  0  0  0  0  0
    6.7587    1.7058   15.4559 S   0  0  0  0  0  6  0  0  0  0  0  0
    5.6281    1.2084   16.5680 N   0  0  0  0  0  0  0  0  0  0  0  0
    6.4879    0.9488   14.2483 O   0  0  0  0  0  0  0  0  0  0  0  0
    6.7108    3.1566   15.4738 O   0  0  0  0  0  0  0  0  0  0  0  0
    5.7084    1.7186   17.4424 H   0  0  0  0  0  0  0  0  0  0  0  0
    5.5883    0.2003   16.6869 H   0  0  0  0  0  0  0  0  0  0  0  0
  1  6  2  0
  2  3  2  0
  2  1  1  0
  2 31  1  0
  3  4  1  0
  3 32  1  0
  4  5  2  0
  4 33  1  0
  5 34  1  0
  6  5  1  0
  6  7  1  0
  7 10  1  0
  8  7  2  0
  8  9  1  0
  8 35  1  0
  9 12  2  0
  9 36  1  0
 10 11  2  0
 10 37  1  0
 12 11  1  0
 12 13  1  0
 13 16  1  0
 13 14  1  0
 14 18  1  0
 15 14  2  0
 16 17  1  0
 16 38  1  0
 16 39  1  0
 17 18  1  0
 17 40  1  0
 17 41  1  0
 18 42  1  1
 19 18  1  0
 19 20  1  0
 19 43  1  0
 20 23  1  0
 20 22  2  0
 21 20  2  0
 23 24  2  0
 23 44  1  0
 24 25  1  0
 24 45  1  0
 25 27  2  0
 26 25  1  0
 26 29  1  0
 27 28  1  0
 27 46  1  0
 28 47  1  0
 29 28  2  0
 30 29  1  0
 48 49  1  0
 48 50  2  0
 48 51  2  0
 49 52  1  0
 49 53  1  0
  1 48  1  0
M  END
>  <attachment_point>  (5) 
30

>  <energies>  (5) 
[-1875832.559342415, -1875829.247977352, -1875828.654420789, -1875827.2493798, -1875826.1383847215, -1875826.2641998332, -1875824.2896799736]

>  <index>  (5) 
4

>  <Smiles>  (5) 
[H]/C(=C(/[H])S(=O)(=O)N([H])[C@]1([H])C(=O)N(c2nc([H])c(-c3c([H])c([H])c([H])c([H])c3S(=O)(=O)N([H])[H])c([H])c2[H])C([H])([H])C1([H])[H])c1sc(Cl)c([H])c1[H]

>  <score>  (5) 
<NA>

>  <h>  (5) 
30

>  <Training>  (5) 
False

>  <Success>  (5) 
nan

>  <enamine_searched>  (5) 
False

>  <enamine_id>  (5) 
nan

$$$$
in.pdb
     RDKit          3D

 58 61  0  0  1  0  0  0  0  0999 V2000
    7.9503    1.0085   16.2526 C   0  0  0  0  0  0  0  0  0  0  0  0
    8.5167    0.0464   15.4229 C   0  0  0  0  0  0  0  0  0  0  0  0
    9.8784   -0.2149   15.4794 C   0  0  0  0  0  0  0  0  0  0  0  0
   10.6719    0.4668   16.3971 C   0  0  0  0  0  0  0  0  0  0  0  0
   10.1088    1.4119   17.2437 C   0  0  0  0  0  0  0  0  0  0  0  0
    8.7343    1.6863   17.2005 C   0  0  0  0  0  0  0  0  0  0  0  0
    8.1348    2.6842   18.1227 C   0  0  0  0  0  0  0  0  0  0  0  0
    8.6785    3.9693   18.2248 C   0  0  0  0  0  0  0  0  0  0  0  0
    8.1038    4.9124   19.0520 C   0  0  0  0  0  0  0  0  0  0  0  0
    7.0004    2.4219   18.8832 C   0  0  0  0  0  0  0  0  0  0  0  0
    6.4251    3.3111   19.6912 N   0  0  0  0  0  0  0  0  0  0  0  0
    6.9780    4.5223   19.7946 C   0  0  0  0  0  0  0  0  0  0  0  0
    6.3354    5.3969   20.6780 N   0  0  0  0  0  0  0  0  0  0  0  0
    6.8688    6.5482   21.2277 C   0  0  0  0  0  0  0  0  0  0  0  0
    7.9874    6.9890   21.0545 O   0  0  0  0  0  0  0  0  0  0  0  0
    5.0226    5.0772   21.2381 C   0  0  0  0  0  0  0  0  0  0  0  0
    4.5164    6.4394   21.6996 C   0  0  0  0  0  0  0  0  0  0  0  0
    5.7910    7.1768   22.1125 C   0  0  2  0  0  0  0  0  0  0  0  0
    5.7047    8.6174   21.9275 N   0  0  0  0  0  0  0  0  0  0  0  0
    6.2247    9.6846   23.0973 S   0  0  0  0  0  0  0  0  0  0  0  0
    5.3315    9.5999   24.2375 O   0  0  0  0  0  0  0  0  0  0  0  0
    6.3980   10.9401   22.3896 O   0  0  0  0  0  0  0  0  0  0  0  0
    7.8124    9.0538   23.5731 C   0  0  0  0  0  0  0  0  0  0  0  0
    8.0242    8.5266   24.7889 C   0  0  0  0  0  0  0  0  0  0  0  0
    9.2985    8.0636   25.3204 C   0  0  0  0  0  0  0  0  0  0  0  0
   10.7753    7.9977   24.4117 S   0  0  0  0  0  0  0  0  0  0  0  0
    9.5000    7.6326   26.6069 C   0  0  0  0  0  0  0  0  0  0  0  0
   10.8421    7.2551   26.8854 C   0  0  0  0  0  0  0  0  0  0  0  0
   11.6348    7.3983   25.7859 C   0  0  0  0  0  0  0  0  0  0  0  0
   13.3127    7.0354   25.6844 Cl  0  0  0  0  0  0  0  0  0  0  0  0
    7.8749   -0.4677   14.7118 H   0  0  0  0  0  0  0  0  0  0  0  0
   10.3146   -0.9498   14.8109 H   0  0  0  0  0  0  0  0  0  0  0  0
   11.7391    0.2676   16.4481 H   0  0  0  0  0  0  0  0  0  0  0  0
   10.7322    1.9474   17.9553 H   0  0  0  0  0  0  0  0  0  0  0  0
    9.5521    4.2400   17.6296 H   0  0  0  0  0  0  0  0  0  0  0  0
    8.5157    5.9086   19.1454 H   0  0  0  0  0  0  0  0  0  0  0  0
    6.5211    1.4430   18.8345 H   0  0  0  0  0  0  0  0  0  0  0  0
    4.4051    4.6046   20.4747 H   0  0  0  0  0  0  0  0  0  0  0  0
    5.1271    4.3593   22.0621 H   0  0  0  0  0  0  0  0  0  0  0  0
    4.0476    6.9742   20.8687 H   0  0  0  0  0  0  0  0  0  0  0  0
    3.7995    6.3783   22.5192 H   0  0  0  0  0  0  0  0  0  0  0  0
    6.0253    6.9558   23.1587 H   0  0  0  0  0  0  0  0  0  0  0  0
    6.0597    8.9490   21.0344 H   0  0  0  0  0  0  0  0  0  0  0  0
    8.5583    9.1249   22.7867 H   0  0  0  0  0  0  0  0  0  0  0  0
    7.1986    8.4273   25.4888 H   0  0  0  0  0  0  0  0  0  0  0  0
    8.6945    7.5930   27.3328 H   0  0  0  0  0  0  0  0  0  0  0  0
   11.1905    6.9007   27.8507 H   0  0  0  0  0  0  0  0  0  0  0  0
    6.4887    1.3137   16.0340 C   0  0  0  0  0  0  0  0  0  0  0  0
    5.6393    0.4371   16.1117 O   0  0  0  0  0  0  0  0  0  0  0  0
    6.1443    2.5955   15.6972 N   0  0  0  0  0  0  0  0  0  0  0  0
    4.7319    2.8607   15.5232 C   0  0  0  0  0  0  0  0  0  0  0  0
    7.0488    3.6196   15.2150 C   0  0  0  0  0  0  0  0  0  0  0  0
    4.1691    2.1232   16.0938 H   0  0  0  0  0  0  0  0  0  0  0  0
    4.4313    2.7828   14.4705 H   0  0  0  0  0  0  0  0  0  0  0  0
    4.5053    3.8670   15.8861 H   0  0  0  0  0  0  0  0  0  0  0  0
    6.9125    3.7868   14.1397 H   0  0  0  0  0  0  0  0  0  0  0  0
    8.0915    3.3620   15.3811 H   0  0  0  0  0  0  0  0  0  0  0  0
    6.8447    4.5609   15.7370 H   0  0  0  0  0  0  0  0  0  0  0  0
  1  6  2  0
  2  3  2  0
  2  1  1  0
  2 31  1  0
  3  4  1  0
  3 32  1  0
  4  5  2  0
  4 33  1  0
  5 34  1  0
  6  5  1  0
  6  7  1  0
  7 10  1  0
  8  7  2  0
  8  9  1  0
  8 35  1  0
  9 12  2  0
  9 36  1  0
 10 11  2  0
 10 37  1  0
 12 11  1  0
 12 13  1  0
 13 16  1  0
 13 14  1  0
 14 18  1  0
 15 14  2  0
 16 17  1  0
 16 38  1  0
 16 39  1  0
 17 18  1  0
 17 40  1  0
 17 41  1  0
 18 42  1  1
 19 18  1  0
 19 20  1  0
 19 43  1  0
 20 23  1  0
 20 22  2  0
 21 20  2  0
 23 24  2  0
 23 44  1  0
 24 25  1  0
 24 45  1  0
 25 27  2  0
 26 25  1  0
 26 29  1  0
 27 28  1  0
 27 46  1  0
 28 47  1  0
 29 28  2  0
 30 29  1  0
 48 49  2  0
 48 50  1  0
 50 51  1  0
 50 52  1  0
 51 53  1  0
 51 54  1  0
 51 55  1  0
 52 56  1  0
 52 57  1  0
 52 58  1  0
  1 48  1  0
M  END
>  <attachment_point>  (6) 
30

>  <energies>  (6) 
[-1652051.5914817888, -1652051.5922794337, -1652062.6542636089, -1652054.230122787, -1652063.2858483845, -1652055.7712405638]

>  <index>  (6) 
5

>  <Smiles>  (6) 
[H]/C(=C(/[H])S(=O)(=O)N([H])[C@]1([H])C(=O)N(c2nc([H])c(-c3c([H])c([H])c([H])c([H])c3C(=O)N(C([H])([H])[H])C([H])([H])[H])c([H])c2[H])C([H])([H])C1([H])[H])c1sc(Cl)c([H])c1[H]

>  <score>  (6) 
<NA>

>  <h>  (6) 
30

>  <Training>  (6) 
False

>  <Success>  (6) 
nan

>  <enamine_searched>  (6) 
False

>  <enamine_id>  (6) 
nan

$$$$
in.pdb
     RDKit          3D

 58 61  0  0  1  0  0  0  0  0999 V2000
    8.1212    1.1676   15.9804 C   0  0  0  0  0  0  0  0  0  0  0  0
    8.8072    0.2356   15.1937 C   0  0  0  0  0  0  0  0  0  0  0  0
   10.0621   -0.2262   15.5866 C   0  0  0  0  0  0  0  0  0  0  0  0
   10.6553    0.2312   16.7529 C   0  0  0  0  0  0  0  0  0  0  0  0
    9.9700    1.1516   17.5372 C   0  0  0  0  0  0  0  0  0  0  0  0
    8.7125    1.6308   17.1763 C   0  0  0  0  0  0  0  0  0  0  0  0
    8.0432    2.6277   18.0652 C   0  0  0  0  0  0  0  0  0  0  0  0
    8.1409    4.0016   17.8289 C   0  0  0  0  0  0  0  0  0  0  0  0
    7.5501    4.8959   18.7079 C   0  0  0  0  0  0  0  0  0  0  0  0
    7.3380    2.2426   19.2027 C   0  0  0  0  0  0  0  0  0  0  0  0
    6.7077    3.0840   20.0308 N   0  0  0  0  0  0  0  0  0  0  0  0
    6.8378    4.3885   19.7988 C   0  0  0  0  0  0  0  0  0  0  0  0
    6.1804    5.2725   20.6880 N   0  0  0  0  0  0  0  0  0  0  0  0
    6.7844    6.4047   21.2050 C   0  0  0  0  0  0  0  0  0  0  0  0
    7.9395    6.7341   21.0369 O   0  0  0  0  0  0  0  0  0  0  0  0
    4.8019    5.1085   21.1561 C   0  0  0  0  0  0  0  0  0  0  0  0
    4.4114    6.5436   21.5394 C   0  0  0  0  0  0  0  0  0  0  0  0
    5.7287    7.1701   22.0129 C   0  0  2  0  0  0  0  0  0  0  0  0
    5.8105    8.5981   21.7494 N   0  0  0  0  0  0  0  0  0  0  0  0
    6.3390    9.7148   22.8665 S   0  0  0  0  0  0  0  0  0  0  0  0
    5.4141    9.6932   23.9880 O   0  0  0  0  0  0  0  0  0  0  0  0
    6.5608   10.9275   22.1037 O   0  0  0  0  0  0  0  0  0  0  0  0
    7.9159    9.1306   23.4306 C   0  0  0  0  0  0  0  0  0  0  0  0
    8.0561    8.6894   24.6901 C   0  0  0  0  0  0  0  0  0  0  0  0
    9.2991    8.2246   25.2943 C   0  0  0  0  0  0  0  0  0  0  0  0
   10.8485    8.4176   24.5277 S   0  0  0  0  0  0  0  0  0  0  0  0
    9.4336    7.5815   26.5012 C   0  0  0  0  0  0  0  0  0  0  0  0
   10.7788    7.2376   26.8240 C   0  0  0  0  0  0  0  0  0  0  0  0
   11.6405    7.6352   25.8464 C   0  0  0  0  0  0  0  0  0  0  0  0
   13.3450    7.4210   25.8293 Cl  0  0  0  0  0  0  0  0  0  0  0  0
    8.3797   -0.1538   14.2748 H   0  0  0  0  0  0  0  0  0  0  0  0
   10.5815   -0.9550   14.9703 H   0  0  0  0  0  0  0  0  0  0  0  0
   11.6413   -0.1152   17.0489 H   0  0  0  0  0  0  0  0  0  0  0  0
   10.4238    1.5259   18.4503 H   0  0  0  0  0  0  0  0  0  0  0  0
    8.6983    4.3606   16.9647 H   0  0  0  0  0  0  0  0  0  0  0  0
    7.6124    5.9644   18.5453 H   0  0  0  0  0  0  0  0  0  0  0  0
    7.2608    1.1898   19.4612 H   0  0  0  0  0  0  0  0  0  0  0  0
    4.1741    4.6826   20.3648 H   0  0  0  0  0  0  0  0  0  0  0  0
    4.7647    4.4241   22.0161 H   0  0  0  0  0  0  0  0  0  0  0  0
    3.6310    6.5855   22.3009 H   0  0  0  0  0  0  0  0  0  0  0  0
    4.0466    7.1003   20.6700 H   0  0  0  0  0  0  0  0  0  0  0  0
    5.8811    6.9706   23.0773 H   0  0  0  0  0  0  0  0  0  0  0  0
    6.2054    8.8172   20.8394 H   0  0  0  0  0  0  0  0  0  0  0  0
    8.7081    9.1945   22.6847 H   0  0  0  0  0  0  0  0  0  0  0  0
    7.1704    8.6660   25.3227 H   0  0  0  0  0  0  0  0  0  0  0  0
    8.5830    7.3440   27.1340 H   0  0  0  0  0  0  0  0  0  0  0  0
   11.0792    6.7182   27.7312 H   0  0  0  0  0  0  0  0  0  0  0  0
    6.8718    1.6521   15.7108 O   0  0  0  0  0  0  0  0  0  0  0  0
    6.2052    1.3700   14.4711 C   0  0  0  0  0  0  0  0  0  0  0  0
    4.7465    1.7538   14.6666 C   0  0  0  0  0  0  0  0  0  0  0  0
    6.8103    2.1455   13.3110 C   0  0  0  0  0  0  0  0  0  0  0  0
    6.2784    0.2939   14.2566 H   0  0  0  0  0  0  0  0  0  0  0  0
    4.1931    1.5526   13.7436 H   0  0  0  0  0  0  0  0  0  0  0  0
    4.2783    1.1889   15.4785 H   0  0  0  0  0  0  0  0  0  0  0  0
    4.6583    2.8263   14.8772 H   0  0  0  0  0  0  0  0  0  0  0  0
    6.7836    3.2239   13.5095 H   0  0  0  0  0  0  0  0  0  0  0  0
    6.2406    1.9600   12.3930 H   0  0  0  0  0  0  0  0  0  0  0  0
    7.8387    1.8193   13.1429 H   0  0  0  0  0  0  0  0  0  0  0  0
  1  6  2  0
  2  3  2  0
  2  1  1  0
  2 31  1  0
  3  4  1  0
  3 32  1  0
  4  5  2  0
  4 33  1  0
  5 34  1  0
  6  5  1  0
  6  7  1  0
  7 10  1  0
  8  7  2  0
  8  9  1  0
  8 35  1  0
  9 12  2  0
  9 36  1  0
 10 11  2  0
 10 37  1  0
 12 11  1  0
 12 13  1  0
 13 16  1  0
 13 14  1  0
 14 18  1  0
 15 14  2  0
 16 17  1  0
 16 38  1  0
 16 39  1  0
 17 18  1  0
 17 40  1  0
 17 41  1  0
 18 42  1  1
 19 18  1  0
 19 20  1  0
 19 43  1  0
 20 23  1  0
 20 22  2  0
 21 20  2  0
 23 24  2  0
 23 44  1  0
 24 25  1  0
 24 45  1  0
 25 27  2  0
 26 25  1  0
 26 29  1  0
 27 28  1  0
 27 46  1  0
 28 47  1  0
 29 28  2  0
 30 29  1  0
 48 49  1  0
 49 50  1  0
 49 51  1  0
 49 52  1  0
 50 53  1  0
 50 54  1  0
 50 55  1  0
 51 56  1  0
 51 57  1  0
 51 58  1  0
  1 48  1  0
M  END
>  <attachment_point>  (7) 
30

>  <energies>  (7) 
[-1618069.945740843, -1618073.510231187, -1618074.8579603794, -1618073.5106340027, -1618074.8581313116, -1618073.3857853392, -1618032.216933864]

>  <index>  (7) 
6

>  <Smiles>  (7) 
[H]/C(=C(/[H])S(=O)(=O)N([H])[C@]1([H])C(=O)N(c2nc([H])c(-c3c([H])c([H])c([H])c([H])c3OC([H])(C([H])([H])[H])C([H])([H])[H])c([H])c2[H])C([H])([H])C1([H])[H])c1sc(Cl)c([H])c1[H]

>  <score>  (7) 
<NA>

>  <h>  (7) 
30

>  <Training>  (7) 
False

>  <Success>  (7) 
nan

>  <enamine_searched>  (7) 
False

>  <enamine_id>  (7) 
nan

$$$$
in.pdb
     RDKit          3D

 59 62  0  0  1  0  0  0  0  0999 V2000
    7.8135    0.8407   16.3982 C   0  0  0  0  0  0  0  0  0  0  0  0
    8.4809   -0.0870   15.6022 C   0  0  0  0  0  0  0  0  0  0  0  0
    9.8325   -0.3345   15.7760 C   0  0  0  0  0  0  0  0  0  0  0  0
   10.5475    0.3828   16.7253 C   0  0  0  0  0  0  0  0  0  0  0  0
    9.8958    1.3383   17.4857 C   0  0  0  0  0  0  0  0  0  0  0  0
    8.5186    1.5638   17.3757 C   0  0  0  0  0  0  0  0  0  0  0  0
    7.9411    2.5822   18.2935 C   0  0  0  0  0  0  0  0  0  0  0  0
    8.4980    3.8641   18.3472 C   0  0  0  0  0  0  0  0  0  0  0  0
    7.9788    4.8207   19.1923 C   0  0  0  0  0  0  0  0  0  0  0  0
    6.8940    2.3210   19.1651 C   0  0  0  0  0  0  0  0  0  0  0  0
    6.3380    3.2404   19.9572 N   0  0  0  0  0  0  0  0  0  0  0  0
    6.8757    4.4595   19.9873 C   0  0  0  0  0  0  0  0  0  0  0  0
    6.2470    5.3848   20.8297 N   0  0  0  0  0  0  0  0  0  0  0  0
    6.8031    6.5597   21.3042 C   0  0  0  0  0  0  0  0  0  0  0  0
    7.9097    6.9962   21.0632 O   0  0  0  0  0  0  0  0  0  0  0  0
    4.9377    5.1233   21.4327 C   0  0  0  0  0  0  0  0  0  0  0  0
    4.4668    6.5162   21.8260 C   0  0  0  0  0  0  0  0  0  0  0  0
    5.7658    7.2191   22.2138 C   0  0  2  0  0  0  0  0  0  0  0  0
    5.7021    8.6550   22.0173 N   0  0  0  0  0  0  0  0  0  0  0  0
    6.2395    9.7452   23.1536 S   0  0  0  0  0  0  0  0  0  0  0  0
    5.3531    9.6948   24.3042 O   0  0  0  0  0  0  0  0  0  0  0  0
    6.4252   10.9764   22.4110 O   0  0  0  0  0  0  0  0  0  0  0  0
    7.8256    9.1124   23.6298 C   0  0  0  0  0  0  0  0  0  0  0  0
    8.0241    8.5333   24.8247 C   0  0  0  0  0  0  0  0  0  0  0  0
    9.2909    8.0426   25.3507 C   0  0  0  0  0  0  0  0  0  0  0  0
   10.7422    7.9315   24.4089 S   0  0  0  0  0  0  0  0  0  0  0  0
    9.5171    7.6310   26.6422 C   0  0  0  0  0  0  0  0  0  0  0  0
   10.8590    7.2327   26.8891 C   0  0  0  0  0  0  0  0  0  0  0  0
   11.6237    7.3393   25.7683 C   0  0  0  0  0  0  0  0  0  0  0  0
   13.2915    6.9485   25.6347 Cl  0  0  0  0  0  0  0  0  0  0  0  0
    7.9206   -0.5950   14.8264 H   0  0  0  0  0  0  0  0  0  0  0  0
   10.3265   -1.0739   15.1554 H   0  0  0  0  0  0  0  0  0  0  0  0
   11.6101    0.2097   16.8642 H   0  0  0  0  0  0  0  0  0  0  0  0
   10.4499    1.9371   18.2037 H   0  0  0  0  0  0  0  0  0  0  0  0
    9.3440    4.1127   17.7055 H   0  0  0  0  0  0  0  0  0  0  0  0
    8.4071    5.8131   19.2410 H   0  0  0  0  0  0  0  0  0  0  0  0
    6.4618    1.3246   19.2030 H   0  0  0  0  0  0  0  0  0  0  0  0
    5.0477    4.4653   22.3042 H   0  0  0  0  0  0  0  0  0  0  0  0
    4.2792    4.6333   20.7159 H   0  0  0  0  0  0  0  0  0  0  0  0
    3.7309    6.5094   22.6326 H   0  0  0  0  0  0  0  0  0  0  0  0
    4.0291    7.0241   20.9598 H   0  0  0  0  0  0  0  0  0  0  0  0
    6.0394    6.9770   23.2468 H   0  0  0  0  0  0  0  0  0  0  0  0
    6.0070    8.9487   21.0934 H   0  0  0  0  0  0  0  0  0  0  0  0
    8.5722    9.2674   22.8531 H   0  0  0  0  0  0  0  0  0  0  0  0
    7.1940    8.4220   25.5198 H   0  0  0  0  0  0  0  0  0  0  0  0
    8.7364    7.6255   27.3949 H   0  0  0  0  0  0  0  0  0  0  0  0
   11.2440    6.8915   27.8448 H   0  0  0  0  0  0  0  0  0  0  0  0
    6.0921    1.1007   15.9497 S   0  0  0  0  0  6  0  0  0  0  0  0
    5.8231    0.2105   14.8311 O   0  0  0  0  0  0  0  0  0  0  0  0
    5.2335    1.0411   17.1252 O   0  0  0  0  0  0  0  0  0  0  0  0
    6.0123    2.6601   15.3694 N   0  0  0  0  0  0  0  0  0  0  0  0
    5.3839    3.6577   16.2226 C   0  0  0  0  0  0  0  0  0  0  0  0
    7.0908    3.1410   14.5184 C   0  0  0  0  0  0  0  0  0  0  0  0
    5.2510    4.5685   15.6340 H   0  0  0  0  0  0  0  0  0  0  0  0
    4.4041    3.2911   16.5265 H   0  0  0  0  0  0  0  0  0  0  0  0
    5.9790    3.8861   17.1133 H   0  0  0  0  0  0  0  0  0  0  0  0
    6.6869    3.9114   13.8570 H   0  0  0  0  0  0  0  0  0  0  0  0
    7.4762    2.3293   13.8992 H   0  0  0  0  0  0  0  0  0  0  0  0
    7.9148    3.5750   15.1004 H   0  0  0  0  0  0  0  0  0  0  0  0
  1  6  2  0
  2  3  2  0
  2  1  1  0
  2 31  1  0
  3  4  1  0
  3 32  1  0
  4  5  2  0
  4 33  1  0
  5 34  1  0
  6  5  1  0
  6  7  1  0
  7 10  1  0
  8  7  2  0
  8  9  1  0
  8 35  1  0
  9 12  2  0
  9 36  1  0
 10 11  2  0
 10 37  1  0
 12 11  1  0
 12 13  1  0
 13 16  1  0
 13 14  1  0
 14 18  1  0
 15 14  2  0
 16 17  1  0
 16 38  1  0
 16 39  1  0
 17 18  1  0
 17 40  1  0
 17 41  1  0
 18 42  1  1
 19 18  1  0
 19 20  1  0
 19 43  1  0
 20 23  1  0
 20 22  2  0
 21 20  2  0
 23 24  2  0
 23 44  1  0
 24 25  1  0
 24 45  1  0
 25 27  2  0
 26 25  1  0
 26 29  1  0
 27 28  1  0
 27 46  1  0
 28 47  1  0
 29 28  2  0
 30 29  1  0
 48 49  2  0
 48 50  2  0
 48 51  1  0
 51 52  1  0
 51 53  1  0
 52 54  1  0
 52 55  1  0
 52 56  1  0
 53 57  1  0
 53 58  1  0
 53 59  1  0
  1 48  1  0
M  END
>  <attachment_point>  (8) 
30

>  <energies>  (8) 
[-1925151.5595554407, -1925149.7880624349, -1925148.6200854697, -1925157.2106317147, -1925152.3875133079, -1925146.9474421581, -1925145.6041653173, -1925146.864903426, -1925150.0966837513, -1925152.401388835, -1925148.0189991542, -1925148.0179707208]

>  <index>  (8) 
7

>  <Smiles>  (8) 
[H]/C(=C(/[H])S(=O)(=O)N([H])[C@]1([H])C(=O)N(c2nc([H])c(-c3c([H])c([H])c([H])c([H])c3S(=O)(=O)N(C([H])([H])[H])C([H])([H])[H])c([H])c2[H])C([H])([H])C1([H])[H])c1sc(Cl)c([H])c1[H]

>  <score>  (8) 
<NA>

>  <h>  (8) 
30

>  <Training>  (8) 
False

>  <Success>  (8) 
nan

>  <enamine_searched>  (8) 
False

>  <enamine_id>  (8) 
nan

$$$$
