in.pdb
     RDKit          3D

 49 52  0  0  1  0  0  0  0  0999 V2000
    8.1757    1.1602   16.0141 C   0  0  0  0  0  0  0  0  0  0  0  0
    8.8446    0.2256   15.2203 C   0  0  0  0  0  0  0  0  0  0  0  0
   10.0946   -0.2401   15.5955 C   0  0  0  0  0  0  0  0  0  0  0  0
   10.6793    0.2283   16.7673 C   0  0  0  0  0  0  0  0  0  0  0  0
   10.0106    1.1473   17.5657 C   0  0  0  0  0  0  0  0  0  0  0  0
    8.7523    1.6322   17.2102 C   0  0  0  0  0  0  0  0  0  0  0  0
    8.0702    2.6309   18.0919 C   0  0  0  0  0  0  0  0  0  0  0  0
    8.1511    4.0021   17.8394 C   0  0  0  0  0  0  0  0  0  0  0  0
    7.5501    4.8948   18.7119 C   0  0  0  0  0  0  0  0  0  0  0  0
    7.3520    2.2431   19.2187 C   0  0  0  0  0  0  0  0  0  0  0  0
    6.7119    3.0844   20.0385 N   0  0  0  0  0  0  0  0  0  0  0  0
    6.8393    4.3881   19.8043 C   0  0  0  0  0  0  0  0  0  0  0  0
    6.1793    5.2741   20.6898 N   0  0  0  0  0  0  0  0  0  0  0  0
    6.7824    6.4071   21.2062 C   0  0  0  0  0  0  0  0  0  0  0  0
    7.9360    6.7391   21.0386 O   0  0  0  0  0  0  0  0  0  0  0  0
    4.8009    5.1118   21.1570 C   0  0  0  0  0  0  0  0  0  0  0  0
    4.4096    6.5461   21.5400 C   0  0  0  0  0  0  0  0  0  0  0  0
    5.7267    7.1715   22.0133 C   0  0  2  0  0  0  0  0  0  0  0  0
    5.8100    8.5980   21.7482 N   0  0  0  0  0  0  0  0  0  0  0  0
    6.3402    9.7136   22.8642 S   0  0  0  0  0  0  0  0  0  0  0  0
    5.4237    9.6898   23.9901 O   0  0  0  0  0  0  0  0  0  0  0  0
    6.5530   10.9259   22.0958 O   0  0  0  0  0  0  0  0  0  0  0  0
    7.9192    9.1329   23.4297 C   0  0  0  0  0  0  0  0  0  0  0  0
    8.0571    8.6907   24.6891 C   0  0  0  0  0  0  0  0  0  0  0  0
    9.2979    8.2245   25.2966 C   0  0  0  0  0  0  0  0  0  0  0  0
   10.8463    8.4200   24.5313 S   0  0  0  0  0  0  0  0  0  0  0  0
    9.4326    7.5796   26.5036 C   0  0  0  0  0  0  0  0  0  0  0  0
   10.7778    7.2364   26.8247 C   0  0  0  0  0  0  0  0  0  0  0  0
   11.6384    7.6360   25.8477 C   0  0  0  0  0  0  0  0  0  0  0  0
   13.3431    7.4242   25.8244 Cl  0  0  0  0  0  0  0  0  0  0  0  0
    8.3752   -0.1278   14.3073 H   0  0  0  0  0  0  0  0  0  0  0  0
   10.6137   -0.9655   14.9760 H   0  0  0  0  0  0  0  0  0  0  0  0
   11.6647   -0.1237   17.0553 H   0  0  0  0  0  0  0  0  0  0  0  0
   10.4719    1.5174   18.4763 H   0  0  0  0  0  0  0  0  0  0  0  0
    8.6947    4.3598   16.9658 H   0  0  0  0  0  0  0  0  0  0  0  0
    7.6065    5.9630   18.5418 H   0  0  0  0  0  0  0  0  0  0  0  0
    7.2620    1.1877   19.4653 H   0  0  0  0  0  0  0  0  0  0  0  0
    4.1718    4.6883   20.3660 H   0  0  0  0  0  0  0  0  0  0  0  0
    4.7623    4.4302   22.0184 H   0  0  0  0  0  0  0  0  0  0  0  0
    3.6290    6.5884   22.3018 H   0  0  0  0  0  0  0  0  0  0  0  0
    4.0445    7.1019   20.6700 H   0  0  0  0  0  0  0  0  0  0  0  0
    5.8781    6.9736   23.0776 H   0  0  0  0  0  0  0  0  0  0  0  0
    6.2036    8.8152   20.8377 H   0  0  0  0  0  0  0  0  0  0  0  0
    8.7135    9.1938   22.6852 H   0  0  0  0  0  0  0  0  0  0  0  0
    7.1730    8.6667   25.3238 H   0  0  0  0  0  0  0  0  0  0  0  0
    8.5832    7.3411   27.1377 H   0  0  0  0  0  0  0  0  0  0  0  0
   11.0798    6.7170   27.7313 H   0  0  0  0  0  0  0  0  0  0  0  0
    6.8743    1.6110   15.5819 C   0  0  0  0  0  0  0  0  0  0  0  0
    5.8266    1.9606   15.2330 N   0  0  0  0  0  0  0  0  0  0  0  0
  1  6  2  0
  2  3  2  0
  2  1  1  0
  2 31  1  0
  3  4  1  0
  3 32  1  0
  4  5  2  0
  4 33  1  0
  5 34  1  0
  6  5  1  0
  6  7  1  0
  7 10  1  0
  8  7  2  0
  8  9  1  0
  8 35  1  0
  9 12  2  0
  9 36  1  0
 10 11  2  0
 10 37  1  0
 12 11  1  0
 12 13  1  0
 13 16  1  0
 13 14  1  0
 14 18  1  0
 15 14  2  0
 16 17  1  0
 16 38  1  0
 16 39  1  0
 17 18  1  0
 17 40  1  0
 17 41  1  0
 18 42  1  1
 19 18  1  0
 19 20  1  0
 19 43  1  0
 20 23  1  0
 20 22  2  0
 21 20  2  0
 23 24  2  0
 23 44  1  0
 24 25  1  0
 24 45  1  0
 25 27  2  0
 26 25  1  0
 26 29  1  0
 27 28  1  0
 27 46  1  0
 28 47  1  0
 29 28  2  0
 30 29  1  0
 48 49  3  0
  1 48  1  0
M  END
>  <attachment_point>  (1) 
30

>  <energies>  (1) 
[-1554759.6801005406, -1554763.702563043]

>  <index>  (1) 
0

>  <Smiles>  (1) 
[H]/C(=C(/[H])S(=O)(=O)N([H])[C@]1([H])C(=O)N(c2nc([H])c(-c3c([H])c([H])c([H])c([H])c3C#N)c([H])c2[H])C([H])([H])C1([H])[H])c1sc(Cl)c([H])c1[H]

>  <score>  (1) 
<NA>

>  <h>  (1) 
30

>  <Training>  (1) 
False

>  <Success>  (1) 
nan

>  <enamine_searched>  (1) 
False

>  <enamine_id>  (1) 
nan

$$$$