in.pdb
     RDKit          3D

 59 62  0  0  1  0  0  0  0  0999 V2000
    7.8135    0.8407   16.3982 C   0  0  0  0  0  0  0  0  0  0  0  0
    8.4809   -0.0870   15.6022 C   0  0  0  0  0  0  0  0  0  0  0  0
    9.8325   -0.3345   15.7760 C   0  0  0  0  0  0  0  0  0  0  0  0
   10.5475    0.3828   16.7253 C   0  0  0  0  0  0  0  0  0  0  0  0
    9.8958    1.3383   17.4857 C   0  0  0  0  0  0  0  0  0  0  0  0
    8.5186    1.5638   17.3757 C   0  0  0  0  0  0  0  0  0  0  0  0
    7.9411    2.5822   18.2935 C   0  0  0  0  0  0  0  0  0  0  0  0
    8.4980    3.8641   18.3472 C   0  0  0  0  0  0  0  0  0  0  0  0
    7.9788    4.8207   19.1923 C   0  0  0  0  0  0  0  0  0  0  0  0
    6.8940    2.3210   19.1651 C   0  0  0  0  0  0  0  0  0  0  0  0
    6.3380    3.2404   19.9572 N   0  0  0  0  0  0  0  0  0  0  0  0
    6.8757    4.4595   19.9873 C   0  0  0  0  0  0  0  0  0  0  0  0
    6.2470    5.3848   20.8297 N   0  0  0  0  0  0  0  0  0  0  0  0
    6.8031    6.5597   21.3042 C   0  0  0  0  0  0  0  0  0  0  0  0
    7.9097    6.9962   21.0632 O   0  0  0  0  0  0  0  0  0  0  0  0
    4.9377    5.1233   21.4327 C   0  0  0  0  0  0  0  0  0  0  0  0
    4.4668    6.5162   21.8260 C   0  0  0  0  0  0  0  0  0  0  0  0
    5.7658    7.2191   22.2138 C   0  0  2  0  0  0  0  0  0  0  0  0
    5.7021    8.6550   22.0173 N   0  0  0  0  0  0  0  0  0  0  0  0
    6.2395    9.7452   23.1536 S   0  0  0  0  0  0  0  0  0  0  0  0
    5.3531    9.6948   24.3042 O   0  0  0  0  0  0  0  0  0  0  0  0
    6.4252   10.9764   22.4110 O   0  0  0  0  0  0  0  0  0  0  0  0
    7.8256    9.1124   23.6298 C   0  0  0  0  0  0  0  0  0  0  0  0
    8.0241    8.5333   24.8247 C   0  0  0  0  0  0  0  0  0  0  0  0
    9.2909    8.0426   25.3507 C   0  0  0  0  0  0  0  0  0  0  0  0
   10.7422    7.9315   24.4089 S   0  0  0  0  0  0  0  0  0  0  0  0
    9.5171    7.6310   26.6422 C   0  0  0  0  0  0  0  0  0  0  0  0
   10.8590    7.2327   26.8891 C   0  0  0  0  0  0  0  0  0  0  0  0
   11.6237    7.3393   25.7683 C   0  0  0  0  0  0  0  0  0  0  0  0
   13.2915    6.9485   25.6347 Cl  0  0  0  0  0  0  0  0  0  0  0  0
    7.9206   -0.5950   14.8264 H   0  0  0  0  0  0  0  0  0  0  0  0
   10.3265   -1.0739   15.1554 H   0  0  0  0  0  0  0  0  0  0  0  0
   11.6101    0.2097   16.8642 H   0  0  0  0  0  0  0  0  0  0  0  0
   10.4499    1.9371   18.2037 H   0  0  0  0  0  0  0  0  0  0  0  0
    9.3440    4.1127   17.7055 H   0  0  0  0  0  0  0  0  0  0  0  0
    8.4071    5.8131   19.2410 H   0  0  0  0  0  0  0  0  0  0  0  0
    6.4618    1.3246   19.2030 H   0  0  0  0  0  0  0  0  0  0  0  0
    5.0477    4.4653   22.3042 H   0  0  0  0  0  0  0  0  0  0  0  0
    4.2792    4.6333   20.7159 H   0  0  0  0  0  0  0  0  0  0  0  0
    3.7309    6.5094   22.6326 H   0  0  0  0  0  0  0  0  0  0  0  0
    4.0291    7.0241   20.9598 H   0  0  0  0  0  0  0  0  0  0  0  0
    6.0394    6.9770   23.2468 H   0  0  0  0  0  0  0  0  0  0  0  0
    6.0070    8.9487   21.0934 H   0  0  0  0  0  0  0  0  0  0  0  0
    8.5722    9.2674   22.8531 H   0  0  0  0  0  0  0  0  0  0  0  0
    7.1940    8.4220   25.5198 H   0  0  0  0  0  0  0  0  0  0  0  0
    8.7364    7.6255   27.3949 H   0  0  0  0  0  0  0  0  0  0  0  0
   11.2440    6.8915   27.8448 H   0  0  0  0  0  0  0  0  0  0  0  0
    6.0921    1.1007   15.9497 S   0  0  0  0  0  6  0  0  0  0  0  0
    5.8231    0.2105   14.8311 O   0  0  0  0  0  0  0  0  0  0  0  0
    5.2335    1.0411   17.1252 O   0  0  0  0  0  0  0  0  0  0  0  0
    6.0123    2.6601   15.3694 N   0  0  0  0  0  0  0  0  0  0  0  0
    5.3839    3.6577   16.2226 C   0  0  0  0  0  0  0  0  0  0  0  0
    7.0908    3.1410   14.5184 C   0  0  0  0  0  0  0  0  0  0  0  0
    5.2510    4.5685   15.6340 H   0  0  0  0  0  0  0  0  0  0  0  0
    4.4041    3.2911   16.5265 H   0  0  0  0  0  0  0  0  0  0  0  0
    5.9790    3.8861   17.1133 H   0  0  0  0  0  0  0  0  0  0  0  0
    6.6869    3.9114   13.8570 H   0  0  0  0  0  0  0  0  0  0  0  0
    7.4762    2.3293   13.8992 H   0  0  0  0  0  0  0  0  0  0  0  0
    7.9148    3.5750   15.1004 H   0  0  0  0  0  0  0  0  0  0  0  0
  1  6  2  0
  2  3  2  0
  2  1  1  0
  2 31  1  0
  3  4  1  0
  3 32  1  0
  4  5  2  0
  4 33  1  0
  5 34  1  0
  6  5  1  0
  6  7  1  0
  7 10  1  0
  8  7  2  0
  8  9  1  0
  8 35  1  0
  9 12  2  0
  9 36  1  0
 10 11  2  0
 10 37  1  0
 12 11  1  0
 12 13  1  0
 13 16  1  0
 13 14  1  0
 14 18  1  0
 15 14  2  0
 16 17  1  0
 16 38  1  0
 16 39  1  0
 17 18  1  0
 17 40  1  0
 17 41  1  0
 18 42  1  1
 19 18  1  0
 19 20  1  0
 19 43  1  0
 20 23  1  0
 20 22  2  0
 21 20  2  0
 23 24  2  0
 23 44  1  0
 24 25  1  0
 24 45  1  0
 25 27  2  0
 26 25  1  0
 26 29  1  0
 27 28  1  0
 27 46  1  0
 28 47  1  0
 29 28  2  0
 30 29  1  0
 48 49  2  0
 48 50  2  0
 48 51  1  0
 51 52  1  0
 51 53  1  0
 52 54  1  0
 52 55  1  0
 52 56  1  0
 53 57  1  0
 53 58  1  0
 53 59  1  0
  1 48  1  0
M  END
>  <attachment_point>  (1) 
30

>  <energies>  (1) 
[-1925151.5595554407, -1925149.7880624349, -1925148.6200854697, -1925157.2106317147, -1925152.3875133079, -1925146.9474421581, -1925145.6041653173, -1925146.864903426, -1925150.0966837513, -1925152.401388835, -1925148.0189991542, -1925148.0179707208]

>  <index>  (1) 
7

>  <Smiles>  (1) 
[H]/C(=C(/[H])S(=O)(=O)N([H])[C@]1([H])C(=O)N(c2nc([H])c(-c3c([H])c([H])c([H])c([H])c3S(=O)(=O)N(C([H])([H])[H])C([H])([H])[H])c([H])c2[H])C([H])([H])C1([H])[H])c1sc(Cl)c([H])c1[H]

>  <score>  (1) 
<NA>

>  <h>  (1) 
30

>  <Training>  (1) 
False

>  <Success>  (1) 
nan

>  <enamine_searched>  (1) 
False

>  <enamine_id>  (1) 
nan

$$$$
